/*---------------------------------------------------------------------------*\
| =========                 |                                                 |
| \\      /  F ield         | OpenFOAM: The Open Source CFD Toolbox           |
|  \\    /   O peration     | Version:  2406                                  |
|   \\  /    A nd           | Website:  www.openfoam.com                      |
|    \\/     M anipulation  |                                                 |
\*---------------------------------------------------------------------------*/
Build  : _be01ca78-20240625 OPENFOAM=2406 version=2406
Arch   : "LSB;label=32;scalar=64"
Exec   : simpleFoam
Date   : Apr 10 2025
Time   : 06:37:14
Host   : 8345f9eb1300
PID    : 292
I/O    : uncollated
Case   : /home/openfoam/env/sandbox/tutorials/pitzDaily
nProcs : 1
trapFpe: Floating point exception trapping enabled (FOAM_SIGFPE).
fileModificationChecking : Monitoring run-time modified files using timeStampMaster (fileModificationSkew 5, maxFileModificationPolls 20)
allowSystemOperations : Allowing user-supplied system call operations

// * * * * * * * * * * * * * * * * * * * * * * * * * * * * * * * * * * * * * //
Create time

Create mesh for time = 0


SIMPLE: convergence criteria
    field p	 tolerance 0.01
    field U	 tolerance 0.001
    field "(k|epsilon|omega|f|v2)"	 tolerance 0.001

Reading field p

Reading field U

Reading/calculating face flux field phi

Selecting incompressible transport model Newtonian
Selecting turbulence model type RAS
Selecting RAS turbulence model kEpsilon
RAS
{
    RASModel        kEpsilon;
    turbulence      on;
    printCoeffs     on;
    Cmu             0.09;
    C1              1.44;
    C2              1.92;
    C3              0;
    sigmak          1;
    sigmaEps        1.3;
}

No MRF models present

No finite volume options present

Starting time loop

streamLine streamlines:
    Employing velocity field U
    automatic track length specified through number of sub cycles : 5

Time = 1

smoothSolver:  Solving for Ux, Initial residual = 1, Final residual = 0.0538101, No Iterations 1
smoothSolver:  Solving for Uy, Initial residual = 1, Final residual = 0.030925, No Iterations 2
GAMG:  Solving for p, Initial residual = 1, Final residual = 0.068427, No Iterations 17
time step continuity errors : sum local = 1.19733, global = 0.179883, cumulative = 0.179883
smoothSolver:  Solving for epsilon, Initial residual = 0.202802, Final residual = 0.0107361, No Iterations 3
bounding epsilon, min: -1.69566 max: 1080.25 average: 48.5385
smoothSolver:  Solving for k, Initial residual = 1, Final residual = 0.0534527, No Iterations 3
bounding k, min: -0.229692 max: 9.09663 average: 0.48428
ExecutionTime = 0.08 s  ClockTime = 0 s

Time = 2

smoothSolver:  Solving for Ux, Initial residual = 0.437129, Final residual = 0.0304984, No Iterations 5
smoothSolver:  Solving for Uy, Initial residual = 0.287053, Final residual = 0.0256795, No Iterations 4
GAMG:  Solving for p, Initial residual = 0.052339, Final residual = 0.00472144, No Iterations 15
time step continuity errors : sum local = 4.47679, global = 0.157755, cumulative = 0.337638
smoothSolver:  Solving for epsilon, Initial residual = 0.149078, Final residual = 0.00888776, No Iterations 3
bounding epsilon, min: -205.666 max: 33173.9 average: 110.576
smoothSolver:  Solving for k, Initial residual = 0.389568, Final residual = 0.0324609, No Iterations 3
ExecutionTime = 0.1 s  ClockTime = 0 s

Time = 3

smoothSolver:  Solving for Ux, Initial residual = 0.122337, Final residual = 0.0111132, No Iterations 4
smoothSolver:  Solving for Uy, Initial residual = 0.203876, Final residual = 0.0161983, No Iterations 4
GAMG:  Solving for p, Initial residual = 0.147393, Final residual = 0.011721, No Iterations 6
time step continuity errors : sum local = 3.2376, global = 0.303771, cumulative = 0.641409
smoothSolver:  Solving for epsilon, Initial residual = 0.0722986, Final residual = 0.0043174, No Iterations 2
bounding epsilon, min: -100.885 max: 50556.6 average: 133.829
smoothSolver:  Solving for k, Initial residual = 0.17472, Final residual = 0.0120247, No Iterations 3
ExecutionTime = 0.11 s  ClockTime = 0 s

Time = 4

smoothSolver:  Solving for Ux, Initial residual = 0.068796, Final residual = 0.00438353, No Iterations 5
smoothSolver:  Solving for Uy, Initial residual = 0.0990487, Final residual = 0.0081756, No Iterations 4
GAMG:  Solving for p, Initial residual = 0.115484, Final residual = 0.00999065, No Iterations 6
time step continuity errors : sum local = 1.86068, global = 0.133453, cumulative = 0.774862
smoothSolver:  Solving for epsilon, Initial residual = 0.0820392, Final residual = 0.00455351, No Iterations 2
smoothSolver:  Solving for k, Initial residual = 0.116199, Final residual = 0.00905673, No Iterations 3
ExecutionTime = 0.12 s  ClockTime = 0 s

Time = 5

smoothSolver:  Solving for Ux, Initial residual = 0.0591321, Final residual = 0.00406515, No Iterations 5
smoothSolver:  Solving for Uy, Initial residual = 0.0892534, Final residual = 0.00846838, No Iterations 4
GAMG:  Solving for p, Initial residual = 0.115032, Final residual = 0.0108344, No Iterations 3
time step continuity errors : sum local = 1.30674, global = 0.0408128, cumulative = 0.815674
smoothSolver:  Solving for epsilon, Initial residual = 0.0517274, Final residual = 0.00401324, No Iterations 2
smoothSolver:  Solving for k, Initial residual = 0.0864336, Final residual = 0.00771937, No Iterations 3
ExecutionTime = 0.13 s  ClockTime = 0 s

Time = 6

smoothSolver:  Solving for Ux, Initial residual = 0.0531936, Final residual = 0.00393273, No Iterations 5
smoothSolver:  Solving for Uy, Initial residual = 0.0757422, Final residual = 0.00519607, No Iterations 5
GAMG:  Solving for p, Initial residual = 0.0937903, Final residual = 0.00760381, No Iterations 4
time step continuity errors : sum local = 0.860642, global = -0.1225, cumulative = 0.693174
smoothSolver:  Solving for epsilon, Initial residual = 0.0400549, Final residual = 0.00371635, No Iterations 2
smoothSolver:  Solving for k, Initial residual = 0.0702831, Final residual = 0.00419621, No Iterations 4
ExecutionTime = 0.14 s  ClockTime = 0 s

Time = 7

smoothSolver:  Solving for Ux, Initial residual = 0.0489532, Final residual = 0.00391797, No Iterations 5
smoothSolver:  Solving for Uy, Initial residual = 0.0649499, Final residual = 0.00457306, No Iterations 5
GAMG:  Solving for p, Initial residual = 0.0760594, Final residual = 0.00467887, No Iterations 4
time step continuity errors : sum local = 0.529526, global = -0.0796542, cumulative = 0.61352
smoothSolver:  Solving for epsilon, Initial residual = 0.035747, Final residual = 0.00193278, No Iterations 3
smoothSolver:  Solving for k, Initial residual = 0.0612, Final residual = 0.00427155, No Iterations 4
ExecutionTime = 0.15 s  ClockTime = 0 s

Time = 8

smoothSolver:  Solving for Ux, Initial residual = 0.0448945, Final residual = 0.00382243, No Iterations 5
smoothSolver:  Solving for Uy, Initial residual = 0.0603104, Final residual = 0.00444831, No Iterations 5
GAMG:  Solving for p, Initial residual = 0.0652965, Final residual = 0.00634579, No Iterations 3
time step continuity errors : sum local = 0.734576, global = 0.0652342, cumulative = 0.678754
smoothSolver:  Solving for epsilon, Initial residual = 0.0342804, Final residual = 0.00195928, No Iterations 3
smoothSolver:  Solving for k, Initial residual = 0.0556465, Final residual = 0.00412015, No Iterations 4
ExecutionTime = 0.17 s  ClockTime = 0 s

Time = 9

smoothSolver:  Solving for Ux, Initial residual = 0.04151, Final residual = 0.00367694, No Iterations 5
smoothSolver:  Solving for Uy, Initial residual = 0.0565709, Final residual = 0.00430631, No Iterations 5
GAMG:  Solving for p, Initial residual = 0.0563982, Final residual = 0.00517299, No Iterations 3
time step continuity errors : sum local = 0.616625, global = 0.0245153, cumulative = 0.703269
smoothSolver:  Solving for epsilon, Initial residual = 0.033606, Final residual = 0.00205766, No Iterations 3
smoothSolver:  Solving for k, Initial residual = 0.0515843, Final residual = 0.00397045, No Iterations 4
ExecutionTime = 0.18 s  ClockTime = 0 s

Time = 10

smoothSolver:  Solving for Ux, Initial residual = 0.0390323, Final residual = 0.00352055, No Iterations 5
smoothSolver:  Solving for Uy, Initial residual = 0.0521802, Final residual = 0.00415082, No Iterations 5
GAMG:  Solving for p, Initial residual = 0.0532963, Final residual = 0.0042408, No Iterations 3
time step continuity errors : sum local = 0.528703, global = 0.0299654, cumulative = 0.733235
smoothSolver:  Solving for epsilon, Initial residual = 0.0308351, Final residual = 0.00208769, No Iterations 3
smoothSolver:  Solving for k, Initial residual = 0.0488389, Final residual = 0.0038749, No Iterations 4
ExecutionTime = 0.19 s  ClockTime = 0 s

Time = 11

smoothSolver:  Solving for Ux, Initial residual = 0.0366032, Final residual = 0.00333853, No Iterations 5
smoothSolver:  Solving for Uy, Initial residual = 0.0491044, Final residual = 0.00404947, No Iterations 5
GAMG:  Solving for p, Initial residual = 0.0541089, Final residual = 0.0038527, No Iterations 3
time step continuity errors : sum local = 0.50937, global = 0.0175118, cumulative = 0.750747
smoothSolver:  Solving for epsilon, Initial residual = 0.0283293, Final residual = 0.0021445, No Iterations 3
smoothSolver:  Solving for k, Initial residual = 0.0462294, Final residual = 0.00374697, No Iterations 4
ExecutionTime = 0.2 s  ClockTime = 0 s

Time = 12

smoothSolver:  Solving for Ux, Initial residual = 0.0342246, Final residual = 0.00314367, No Iterations 5
smoothSolver:  Solving for Uy, Initial residual = 0.0470294, Final residual = 0.00398755, No Iterations 5
GAMG:  Solving for p, Initial residual = 0.0524869, Final residual = 0.00413999, No Iterations 3
time step continuity errors : sum local = 0.496687, global = 0.0146069, cumulative = 0.765354
smoothSolver:  Solving for epsilon, Initial residual = 0.02631, Final residual = 0.00210451, No Iterations 3
smoothSolver:  Solving for k, Initial residual = 0.0432494, Final residual = 0.00352564, No Iterations 4
ExecutionTime = 0.21 s  ClockTime = 0 s

Time = 13

smoothSolver:  Solving for Ux, Initial residual = 0.0322036, Final residual = 0.00295365, No Iterations 5
smoothSolver:  Solving for Uy, Initial residual = 0.0458435, Final residual = 0.00390519, No Iterations 5
GAMG:  Solving for p, Initial residual = 0.0485432, Final residual = 0.00416024, No Iterations 3
time step continuity errors : sum local = 0.474229, global = 0.0162947, cumulative = 0.781648
smoothSolver:  Solving for epsilon, Initial residual = 0.0256436, Final residual = 0.00208667, No Iterations 3
smoothSolver:  Solving for k, Initial residual = 0.0411594, Final residual = 0.00339258, No Iterations 4
ExecutionTime = 0.22 s  ClockTime = 0 s

Time = 14

smoothSolver:  Solving for Ux, Initial residual = 0.0302261, Final residual = 0.00276586, No Iterations 5
smoothSolver:  Solving for Uy, Initial residual = 0.0456484, Final residual = 0.00385017, No Iterations 5
GAMG:  Solving for p, Initial residual = 0.0466437, Final residual = 0.00371268, No Iterations 3
time step continuity errors : sum local = 0.422699, global = 0.0116424, cumulative = 0.793291
smoothSolver:  Solving for epsilon, Initial residual = 0.0248257, Final residual = 0.00203253, No Iterations 3
smoothSolver:  Solving for k, Initial residual = 0.0389613, Final residual = 0.00321342, No Iterations 4
ExecutionTime = 0.24 s  ClockTime = 0 s

Time = 15

smoothSolver:  Solving for Ux, Initial residual = 0.0281955, Final residual = 0.0025988, No Iterations 5
smoothSolver:  Solving for Uy, Initial residual = 0.0451698, Final residual = 0.0038193, No Iterations 5
GAMG:  Solving for p, Initial residual = 0.0506689, Final residual = 0.00355145, No Iterations 3
time step continuity errors : sum local = 0.412881, global = 0.00775537, cumulative = 0.801046
smoothSolver:  Solving for epsilon, Initial residual = 0.0238692, Final residual = 0.00195795, No Iterations 3
smoothSolver:  Solving for k, Initial residual = 0.0364175, Final residual = 0.00299645, No Iterations 4
ExecutionTime = 0.25 s  ClockTime = 0 s

Time = 16

smoothSolver:  Solving for Ux, Initial residual = 0.0263647, Final residual = 0.00244695, No Iterations 5
smoothSolver:  Solving for Uy, Initial residual = 0.044043, Final residual = 0.00377914, No Iterations 5
GAMG:  Solving for p, Initial residual = 0.04581, Final residual = 0.00379429, No Iterations 3
time step continuity errors : sum local = 0.403603, global = 0.00176593, cumulative = 0.802812
smoothSolver:  Solving for epsilon, Initial residual = 0.0218597, Final residual = 0.00185034, No Iterations 3
smoothSolver:  Solving for k, Initial residual = 0.0343071, Final residual = 0.00282015, No Iterations 4
ExecutionTime = 0.26 s  ClockTime = 0 s

Time = 17

smoothSolver:  Solving for Ux, Initial residual = 0.0246678, Final residual = 0.0023067, No Iterations 5
smoothSolver:  Solving for Uy, Initial residual = 0.0419382, Final residual = 0.00370591, No Iterations 5
GAMG:  Solving for p, Initial residual = 0.0433143, Final residual = 0.00375993, No Iterations 3
time step continuity errors : sum local = 0.394148, global = -0.00136695, cumulative = 0.801445
smoothSolver:  Solving for epsilon, Initial residual = 0.0200812, Final residual = 0.0017499, No Iterations 3
smoothSolver:  Solving for k, Initial residual = 0.0320373, Final residual = 0.00264618, No Iterations 4
ExecutionTime = 0.27 s  ClockTime = 0 s

Time = 18

smoothSolver:  Solving for Ux, Initial residual = 0.0232063, Final residual = 0.00217903, No Iterations 5
smoothSolver:  Solving for Uy, Initial residual = 0.0401209, Final residual = 0.00362513, No Iterations 5
GAMG:  Solving for p, Initial residual = 0.0413271, Final residual = 0.00373109, No Iterations 3
time step continuity errors : sum local = 0.387456, global = -0.00395543, cumulative = 0.79749
smoothSolver:  Solving for epsilon, Initial residual = 0.0187099, Final residual = 0.00166127, No Iterations 3
smoothSolver:  Solving for k, Initial residual = 0.0302495, Final residual = 0.00250273, No Iterations 4
ExecutionTime = 0.28 s  ClockTime = 0 s

Time = 19

smoothSolver:  Solving for Ux, Initial residual = 0.0218902, Final residual = 0.00205885, No Iterations 5
smoothSolver:  Solving for Uy, Initial residual = 0.0384801, Final residual = 0.00353768, No Iterations 5
GAMG:  Solving for p, Initial residual = 0.039636, Final residual = 0.00374603, No Iterations 3
time step continuity errors : sum local = 0.381693, global = -0.00657536, cumulative = 0.790914
smoothSolver:  Solving for epsilon, Initial residual = 0.0173263, Final residual = 0.00156606, No Iterations 3
smoothSolver:  Solving for k, Initial residual = 0.0282327, Final residual = 0.00233809, No Iterations 4
ExecutionTime = 0.29 s  ClockTime = 0 s

Time = 20

smoothSolver:  Solving for Ux, Initial residual = 0.0206123, Final residual = 0.00194463, No Iterations 5
smoothSolver:  Solving for Uy, Initial residual = 0.0369848, Final residual = 0.00344911, No Iterations 5
GAMG:  Solving for p, Initial residual = 0.0375351, Final residual = 0.00265248, No Iterations 4
time step continuity errors : sum local = 0.260579, global = 0.030696, cumulative = 0.82161
smoothSolver:  Solving for epsilon, Initial residual = 0.016172, Final residual = 0.00147277, No Iterations 3
smoothSolver:  Solving for k, Initial residual = 0.0268647, Final residual = 0.00221442, No Iterations 4
ExecutionTime = 0.3 s  ClockTime = 0 s

Time = 21

smoothSolver:  Solving for Ux, Initial residual = 0.0193504, Final residual = 0.00182888, No Iterations 5
smoothSolver:  Solving for Uy, Initial residual = 0.0355678, Final residual = 0.00335864, No Iterations 5
GAMG:  Solving for p, Initial residual = 0.0348557, Final residual = 0.00322501, No Iterations 3
time step continuity errors : sum local = 0.305325, global = -0.0108301, cumulative = 0.81078
smoothSolver:  Solving for epsilon, Initial residual = 0.0155565, Final residual = 0.00139324, No Iterations 3
smoothSolver:  Solving for k, Initial residual = 0.0253245, Final residual = 0.00208429, No Iterations 4
ExecutionTime = 0.31 s  ClockTime = 0 s

Time = 22

smoothSolver:  Solving for Ux, Initial residual = 0.0182523, Final residual = 0.00173235, No Iterations 5
smoothSolver:  Solving for Uy, Initial residual = 0.0341281, Final residual = 0.00328392, No Iterations 5
GAMG:  Solving for p, Initial residual = 0.0328866, Final residual = 0.00268186, No Iterations 4
time step continuity errors : sum local = 0.247758, global = 0.0308092, cumulative = 0.841589
smoothSolver:  Solving for epsilon, Initial residual = 0.0148566, Final residual = 0.00131431, No Iterations 3
smoothSolver:  Solving for k, Initial residual = 0.024071, Final residual = 0.00198168, No Iterations 4
ExecutionTime = 0.32 s  ClockTime = 0 s

Time = 23

smoothSolver:  Solving for Ux, Initial residual = 0.0171918, Final residual = 0.00162658, No Iterations 5
smoothSolver:  Solving for Uy, Initial residual = 0.0327903, Final residual = 0.00319058, No Iterations 5
GAMG:  Solving for p, Initial residual = 0.0309209, Final residual = 0.00244087, No Iterations 4
time step continuity errors : sum local = 0.217682, global = 0.0314681, cumulative = 0.873057
smoothSolver:  Solving for epsilon, Initial residual = 0.0141068, Final residual = 0.00124268, No Iterations 3
smoothSolver:  Solving for k, Initial residual = 0.0229318, Final residual = 0.0018765, No Iterations 4
ExecutionTime = 0.33 s  ClockTime = 0 s

Time = 24

smoothSolver:  Solving for Ux, Initial residual = 0.0162087, Final residual = 0.00153214, No Iterations 5
smoothSolver:  Solving for Uy, Initial residual = 0.0316019, Final residual = 0.00311064, No Iterations 5
GAMG:  Solving for p, Initial residual = 0.0298914, Final residual = 0.00256083, No Iterations 4
time step continuity errors : sum local = 0.222816, global = 0.0328451, cumulative = 0.905902
smoothSolver:  Solving for epsilon, Initial residual = 0.0135721, Final residual = 0.00117879, No Iterations 3
smoothSolver:  Solving for k, Initial residual = 0.0218757, Final residual = 0.00178224, No Iterations 4
ExecutionTime = 0.34 s  ClockTime = 0 s

Time = 25

smoothSolver:  Solving for Ux, Initial residual = 0.0152965, Final residual = 0.00144292, No Iterations 5
smoothSolver:  Solving for Uy, Initial residual = 0.0304557, Final residual = 0.00301875, No Iterations 5
GAMG:  Solving for p, Initial residual = 0.0288303, Final residual = 0.00251098, No Iterations 4
time step continuity errors : sum local = 0.213024, global = 0.029145, cumulative = 0.935047
smoothSolver:  Solving for epsilon, Initial residual = 0.0129782, Final residual = 0.00112069, No Iterations 3
smoothSolver:  Solving for k, Initial residual = 0.0209179, Final residual = 0.00169701, No Iterations 4
ExecutionTime = 0.35 s  ClockTime = 0 s

Time = 26

smoothSolver:  Solving for Ux, Initial residual = 0.014412, Final residual = 0.00135793, No Iterations 5
smoothSolver:  Solving for Uy, Initial residual = 0.0294347, Final residual = 0.00292843, No Iterations 5
GAMG:  Solving for p, Initial residual = 0.0279457, Final residual = 0.0026967, No Iterations 4
time step continuity errors : sum local = 0.223396, global = 0.0306153, cumulative = 0.965663
smoothSolver:  Solving for epsilon, Initial residual = 0.0124082, Final residual = 0.00105824, No Iterations 3
smoothSolver:  Solving for k, Initial residual = 0.019945, Final residual = 0.00160529, No Iterations 4
ExecutionTime = 0.37 s  ClockTime = 0 s

Time = 27

smoothSolver:  Solving for Ux, Initial residual = 0.0135254, Final residual = 0.00127372, No Iterations 5
smoothSolver:  Solving for Uy, Initial residual = 0.0284585, Final residual = 0.00283622, No Iterations 5
GAMG:  Solving for p, Initial residual = 0.0271587, Final residual = 0.00243844, No Iterations 5
time step continuity errors : sum local = 0.196546, global = -0.0350689, cumulative = 0.930594
smoothSolver:  Solving for epsilon, Initial residual = 0.0119222, Final residual = 0.00101071, No Iterations 3
smoothSolver:  Solving for k, Initial residual = 0.0191323, Final residual = 0.00153327, No Iterations 4
ExecutionTime = 0.38 s  ClockTime = 0 s

Time = 28

smoothSolver:  Solving for Ux, Initial residual = 0.0126503, Final residual = 0.00119043, No Iterations 5
smoothSolver:  Solving for Uy, Initial residual = 0.0274678, Final residual = 0.00274369, No Iterations 5
GAMG:  Solving for p, Initial residual = 0.0264212, Final residual = 0.00218589, No Iterations 4
time step continuity errors : sum local = 0.170147, global = 0.0208124, cumulative = 0.951406
smoothSolver:  Solving for epsilon, Initial residual = 0.0114283, Final residual = 0.000963015, No Iterations 3
smoothSolver:  Solving for k, Initial residual = 0.0184402, Final residual = 0.00146556, No Iterations 4
ExecutionTime = 0.39 s  ClockTime = 0 s

Time = 29

smoothSolver:  Solving for Ux, Initial residual = 0.0118415, Final residual = 0.00111371, No Iterations 5
smoothSolver:  Solving for Uy, Initial residual = 0.0265168, Final residual = 0.00171455, No Iterations 6
GAMG:  Solving for p, Initial residual = 0.0258624, Final residual = 0.00248464, No Iterations 4
time step continuity errors : sum local = 0.188937, global = 0.0292645, cumulative = 0.980671
smoothSolver:  Solving for epsilon, Initial residual = 0.0110459, Final residual = 0.000926723, No Iterations 3
smoothSolver:  Solving for k, Initial residual = 0.0176754, Final residual = 0.00139534, No Iterations 4
ExecutionTime = 0.4 s  ClockTime = 0 s

Time = 30

smoothSolver:  Solving for Ux, Initial residual = 0.0111388, Final residual = 0.0010491, No Iterations 5
smoothSolver:  Solving for Uy, Initial residual = 0.0252732, Final residual = 0.00163657, No Iterations 6
GAMG:  Solving for p, Initial residual = 0.0253439, Final residual = 0.00216594, No Iterations 5
time step continuity errors : sum local = 0.161541, global = -0.0257817, cumulative = 0.954889
smoothSolver:  Solving for epsilon, Initial residual = 0.0106328, Final residual = 0.000891978, No Iterations 3
smoothSolver:  Solving for k, Initial residual = 0.0170644, Final residual = 0.00133682, No Iterations 4
ExecutionTime = 0.42 s  ClockTime = 0 s

Time = 31

smoothSolver:  Solving for Ux, Initial residual = 0.0104351, Final residual = 0.000983335, No Iterations 5
smoothSolver:  Solving for Uy, Initial residual = 0.0241525, Final residual = 0.00156667, No Iterations 6
GAMG:  Solving for p, Initial residual = 0.0245621, Final residual = 0.00206555, No Iterations 4
time step continuity errors : sum local = 0.14976, global = 0.0168457, cumulative = 0.971735
smoothSolver:  Solving for epsilon, Initial residual = 0.0102012, Final residual = 0.000856362, No Iterations 3
smoothSolver:  Solving for k, Initial residual = 0.0164959, Final residual = 0.00128667, No Iterations 4
ExecutionTime = 0.43 s  ClockTime = 0 s

Time = 32

smoothSolver:  Solving for Ux, Initial residual = 0.00973127, Final residual = 0.000918357, No Iterations 5
smoothSolver:  Solving for Uy, Initial residual = 0.0232223, Final residual = 0.00151188, No Iterations 6
GAMG:  Solving for p, Initial residual = 0.0240832, Final residual = 0.00227968, No Iterations 4
time step continuity errors : sum local = 0.160784, global = 0.0258819, cumulative = 0.997617
smoothSolver:  Solving for epsilon, Initial residual = 0.00983712, Final residual = 0.000828727, No Iterations 3
smoothSolver:  Solving for k, Initial residual = 0.015882, Final residual = 0.0012336, No Iterations 4
ExecutionTime = 0.44 s  ClockTime = 0 s

Time = 33

smoothSolver:  Solving for Ux, Initial residual = 0.00909195, Final residual = 0.000860923, No Iterations 5
smoothSolver:  Solving for Uy, Initial residual = 0.0223631, Final residual = 0.00146162, No Iterations 6
GAMG:  Solving for p, Initial residual = 0.0234751, Final residual = 0.00225881, No Iterations 4
time step continuity errors : sum local = 0.155972, global = 0.0240907, cumulative = 1.02171
smoothSolver:  Solving for epsilon, Initial residual = 0.00940965, Final residual = 0.000793624, No Iterations 3
smoothSolver:  Solving for k, Initial residual = 0.0153331, Final residual = 0.0011899, No Iterations 4
ExecutionTime = 0.45 s  ClockTime = 0 s

Time = 34

smoothSolver:  Solving for Ux, Initial residual = 0.00849658, Final residual = 0.000807211, No Iterations 5
smoothSolver:  Solving for Uy, Initial residual = 0.0214355, Final residual = 0.00140957, No Iterations 6
GAMG:  Solving for p, Initial residual = 0.0228495, Final residual = 0.00198579, No Iterations 5
time step continuity errors : sum local = 0.133988, global = -0.0207192, cumulative = 1.00099
smoothSolver:  Solving for epsilon, Initial residual = 0.00907301, Final residual = 0.000766077, No Iterations 3
smoothSolver:  Solving for k, Initial residual = 0.0149599, Final residual = 0.00116229, No Iterations 4
ExecutionTime = 0.47 s  ClockTime = 0 s

Time = 35

smoothSolver:  Solving for Ux, Initial residual = 0.00792897, Final residual = 0.000755149, No Iterations 5
smoothSolver:  Solving for Uy, Initial residual = 0.0205977, Final residual = 0.00136292, No Iterations 6
GAMG:  Solving for p, Initial residual = 0.0221525, Final residual = 0.0017264, No Iterations 4
time step continuity errors : sum local = 0.112853, global = 0.0126162, cumulative = 1.0136
smoothSolver:  Solving for epsilon, Initial residual = 0.00872206, Final residual = 0.000740084, No Iterations 3
smoothSolver:  Solving for k, Initial residual = 0.0143771, Final residual = 0.00111528, No Iterations 4
ExecutionTime = 0.48 s  ClockTime = 0 s

Time = 36

smoothSolver:  Solving for Ux, Initial residual = 0.00740692, Final residual = 0.000708537, No Iterations 5
smoothSolver:  Solving for Uy, Initial residual = 0.0199381, Final residual = 0.0013271, No Iterations 6
GAMG:  Solving for p, Initial residual = 0.0215917, Final residual = 0.00188827, No Iterations 4
time step continuity errors : sum local = 0.120664, global = 0.0173587, cumulative = 1.03096
smoothSolver:  Solving for epsilon, Initial residual = 0.00840066, Final residual = 0.0007164, No Iterations 3
smoothSolver:  Solving for k, Initial residual = 0.0139259, Final residual = 0.00107268, No Iterations 4
ExecutionTime = 0.49 s  ClockTime = 1 s

Time = 37

smoothSolver:  Solving for Ux, Initial residual = 0.00695164, Final residual = 0.000668672, No Iterations 5
smoothSolver:  Solving for Uy, Initial residual = 0.0193383, Final residual = 0.00129485, No Iterations 6
GAMG:  Solving for p, Initial residual = 0.0210263, Final residual = 0.00201238, No Iterations 4
time step continuity errors : sum local = 0.126399, global = 0.0184029, cumulative = 1.04937
smoothSolver:  Solving for epsilon, Initial residual = 0.00808146, Final residual = 0.000688992, No Iterations 3
smoothSolver:  Solving for k, Initial residual = 0.0134724, Final residual = 0.00104392, No Iterations 4
ExecutionTime = 0.5 s  ClockTime = 1 s

Time = 38

smoothSolver:  Solving for Ux, Initial residual = 0.00653183, Final residual = 0.000631296, No Iterations 5
smoothSolver:  Solving for Uy, Initial residual = 0.018771, Final residual = 0.00126409, No Iterations 6
GAMG:  Solving for p, Initial residual = 0.0204723, Final residual = 0.0019965, No Iterations 4
time step continuity errors : sum local = 0.122979, global = 0.0176652, cumulative = 1.06703
smoothSolver:  Solving for epsilon, Initial residual = 0.00779341, Final residual = 0.000663802, No Iterations 3
smoothSolver:  Solving for k, Initial residual = 0.0130177, Final residual = 0.00100189, No Iterations 4
ExecutionTime = 0.51 s  ClockTime = 1 s

Time = 39

smoothSolver:  Solving for Ux, Initial residual = 0.0061403, Final residual = 0.000596513, No Iterations 5
smoothSolver:  Solving for Uy, Initial residual = 0.0182861, Final residual = 0.00124, No Iterations 6
GAMG:  Solving for p, Initial residual = 0.0199749, Final residual = 0.00191611, No Iterations 4
time step continuity errors : sum local = 0.115615, global = 0.0167187, cumulative = 1.08375
smoothSolver:  Solving for epsilon, Initial residual = 0.00745821, Final residual = 0.000636463, No Iterations 3
smoothSolver:  Solving for k, Initial residual = 0.012616, Final residual = 0.000971386, No Iterations 4
ExecutionTime = 0.52 s  ClockTime = 1 s

Time = 40

smoothSolver:  Solving for Ux, Initial residual = 0.00579432, Final residual = 0.000566056, No Iterations 5
smoothSolver:  Solving for Uy, Initial residual = 0.0178826, Final residual = 0.00122145, No Iterations 6
GAMG:  Solving for p, Initial residual = 0.0194587, Final residual = 0.00185858, No Iterations 4
time step continuity errors : sum local = 0.110212, global = 0.0155384, cumulative = 1.09929
smoothSolver:  Solving for epsilon, Initial residual = 0.00724728, Final residual = 0.000614034, No Iterations 3
smoothSolver:  Solving for k, Initial residual = 0.0121457, Final residual = 0.000934054, No Iterations 4
ExecutionTime = 0.53 s  ClockTime = 1 s

Time = 41

smoothSolver:  Solving for Ux, Initial residual = 0.00548151, Final residual = 0.000538525, No Iterations 5
smoothSolver:  Solving for Uy, Initial residual = 0.0175129, Final residual = 0.00120522, No Iterations 6
GAMG:  Solving for p, Initial residual = 0.0188784, Final residual = 0.00175606, No Iterations 4
time step continuity errors : sum local = 0.102401, global = 0.0142063, cumulative = 1.11349
smoothSolver:  Solving for epsilon, Initial residual = 0.00692015, Final residual = 0.00058568, No Iterations 3
smoothSolver:  Solving for k, Initial residual = 0.0117673, Final residual = 0.000905915, No Iterations 4
ExecutionTime = 0.55 s  ClockTime = 1 s

Time = 42

smoothSolver:  Solving for Ux, Initial residual = 0.005203, Final residual = 0.000514109, No Iterations 5
smoothSolver:  Solving for Uy, Initial residual = 0.0171933, Final residual = 0.00119153, No Iterations 6
GAMG:  Solving for p, Initial residual = 0.0184644, Final residual = 0.00165083, No Iterations 4
time step continuity errors : sum local = 0.0947936, global = 0.0129443, cumulative = 1.12644
smoothSolver:  Solving for epsilon, Initial residual = 0.0066636, Final residual = 0.000561724, No Iterations 3
smoothSolver:  Solving for k, Initial residual = 0.0113299, Final residual = 0.000865166, No Iterations 4
ExecutionTime = 0.56 s  ClockTime = 1 s

Time = 43

smoothSolver:  Solving for Ux, Initial residual = 0.00495334, Final residual = 0.000492566, No Iterations 5
smoothSolver:  Solving for Uy, Initial residual = 0.0169338, Final residual = 0.00118038, No Iterations 6
GAMG:  Solving for p, Initial residual = 0.0179918, Final residual = 0.00155062, No Iterations 4
time step continuity errors : sum local = 0.0877353, global = 0.0118089, cumulative = 1.13825
smoothSolver:  Solving for epsilon, Initial residual = 0.00640928, Final residual = 0.000535598, No Iterations 3
smoothSolver:  Solving for k, Initial residual = 0.0109818, Final residual = 0.000844876, No Iterations 4
ExecutionTime = 0.57 s  ClockTime = 1 s

Time = 44

smoothSolver:  Solving for Ux, Initial residual = 0.00473559, Final residual = 0.000304263, No Iterations 6
smoothSolver:  Solving for Uy, Initial residual = 0.0166945, Final residual = 0.00117109, No Iterations 6
GAMG:  Solving for p, Initial residual = 0.0178567, Final residual = 0.00147558, No Iterations 4
time step continuity errors : sum local = 0.0823689, global = 0.0107999, cumulative = 1.14905
smoothSolver:  Solving for epsilon, Initial residual = 0.00617705, Final residual = 0.000513096, No Iterations 3
smoothSolver:  Solving for k, Initial residual = 0.0106311, Final residual = 0.000818894, No Iterations 4
ExecutionTime = 0.58 s  ClockTime = 1 s

Time = 45

smoothSolver:  Solving for Ux, Initial residual = 0.00451925, Final residual = 0.00029226, No Iterations 6
smoothSolver:  Solving for Uy, Initial residual = 0.0166312, Final residual = 0.00117303, No Iterations 6
GAMG:  Solving for p, Initial residual = 0.0173241, Final residual = 0.00139131, No Iterations 4
time step continuity errors : sum local = 0.0767543, global = 0.00951293, cumulative = 1.15856
smoothSolver:  Solving for epsilon, Initial residual = 0.0059405, Final residual = 0.000491284, No Iterations 3
smoothSolver:  Solving for k, Initial residual = 0.0103046, Final residual = 0.000794241, No Iterations 4
ExecutionTime = 0.59 s  ClockTime = 1 s

Time = 46

smoothSolver:  Solving for Ux, Initial residual = 0.00434269, Final residual = 0.000283, No Iterations 6
smoothSolver:  Solving for Uy, Initial residual = 0.0165274, Final residual = 0.0011726, No Iterations 6
GAMG:  Solving for p, Initial residual = 0.0169376, Final residual = 0.00131436, No Iterations 4
time step continuity errors : sum local = 0.0717419, global = 0.0081232, cumulative = 1.16668
smoothSolver:  Solving for epsilon, Initial residual = 0.00577604, Final residual = 0.000474975, No Iterations 3
smoothSolver:  Solving for k, Initial residual = 0.00991446, Final residual = 0.000757733, No Iterations 4
ExecutionTime = 0.6 s  ClockTime = 1 s

Time = 47

smoothSolver:  Solving for Ux, Initial residual = 0.00420285, Final residual = 0.000275583, No Iterations 6
smoothSolver:  Solving for Uy, Initial residual = 0.0164591, Final residual = 0.00117244, No Iterations 6
GAMG:  Solving for p, Initial residual = 0.0165954, Final residual = 0.00125674, No Iterations 4
time step continuity errors : sum local = 0.0678985, global = 0.00503156, cumulative = 1.17172
smoothSolver:  Solving for epsilon, Initial residual = 0.00555608, Final residual = 0.000456324, No Iterations 3
smoothSolver:  Solving for k, Initial residual = 0.00959225, Final residual = 0.000729624, No Iterations 4
ExecutionTime = 0.62 s  ClockTime = 1 s

Time = 48

smoothSolver:  Solving for Ux, Initial residual = 0.00408612, Final residual = 0.00026941, No Iterations 6
smoothSolver:  Solving for Uy, Initial residual = 0.0164036, Final residual = 0.00117349, No Iterations 6
GAMG:  Solving for p, Initial residual = 0.0162563, Final residual = 0.0015614, No Iterations 3
time step continuity errors : sum local = 0.0835818, global = 0.0100713, cumulative = 1.18179
smoothSolver:  Solving for epsilon, Initial residual = 0.00541555, Final residual = 0.00044054, No Iterations 3
smoothSolver:  Solving for k, Initial residual = 0.00925733, Final residual = 0.000707184, No Iterations 4
ExecutionTime = 0.64 s  ClockTime = 1 s

Time = 49

smoothSolver:  Solving for Ux, Initial residual = 0.0039879, Final residual = 0.000263933, No Iterations 6
smoothSolver:  Solving for Uy, Initial residual = 0.0163208, Final residual = 0.001172, No Iterations 6
GAMG:  Solving for p, Initial residual = 0.0161834, Final residual = 0.00138564, No Iterations 4
time step continuity errors : sum local = 0.0737106, global = -1.93508e-05, cumulative = 1.18177
smoothSolver:  Solving for epsilon, Initial residual = 0.00523463, Final residual = 0.000422626, No Iterations 3
smoothSolver:  Solving for k, Initial residual = 0.0089875, Final residual = 0.000683605, No Iterations 4
ExecutionTime = 0.65 s  ClockTime = 1 s

Time = 50

smoothSolver:  Solving for Ux, Initial residual = 0.00390361, Final residual = 0.00025958, No Iterations 6
smoothSolver:  Solving for Uy, Initial residual = 0.0164233, Final residual = 0.00118244, No Iterations 6
GAMG:  Solving for p, Initial residual = 0.0158034, Final residual = 0.00145623, No Iterations 3
time step continuity errors : sum local = 0.0763643, global = 0.0106759, cumulative = 1.19244
smoothSolver:  Solving for epsilon, Initial residual = 0.00509449, Final residual = 0.000410752, No Iterations 3
smoothSolver:  Solving for k, Initial residual = 0.00862547, Final residual = 0.000652874, No Iterations 4
ExecutionTime = 0.66 s  ClockTime = 1 s

Time = 51

smoothSolver:  Solving for Ux, Initial residual = 0.00383231, Final residual = 0.000255371, No Iterations 6
smoothSolver:  Solving for Uy, Initial residual = 0.0163423, Final residual = 0.00117926, No Iterations 6
GAMG:  Solving for p, Initial residual = 0.0157627, Final residual = 0.00108079, No Iterations 4
time step continuity errors : sum local = 0.056536, global = 0.00573049, cumulative = 1.19817
smoothSolver:  Solving for epsilon, Initial residual = 0.00497349, Final residual = 0.000399531, No Iterations 3
smoothSolver:  Solving for k, Initial residual = 0.0083663, Final residual = 0.000634851, No Iterations 4
ExecutionTime = 0.67 s  ClockTime = 1 s

Time = 52

smoothSolver:  Solving for Ux, Initial residual = 0.00376421, Final residual = 0.000251571, No Iterations 6
smoothSolver:  Solving for Uy, Initial residual = 0.0164305, Final residual = 0.00118623, No Iterations 6
GAMG:  Solving for p, Initial residual = 0.0152087, Final residual = 0.000928795, No Iterations 4
time step continuity errors : sum local = 0.0482058, global = -0.00521485, cumulative = 1.19296
smoothSolver:  Solving for epsilon, Initial residual = 0.00485224, Final residual = 0.000388447, No Iterations 3
smoothSolver:  Solving for k, Initial residual = 0.0080538, Final residual = 0.000604818, No Iterations 4
ExecutionTime = 0.68 s  ClockTime = 1 s

Time = 53

smoothSolver:  Solving for Ux, Initial residual = 0.00370818, Final residual = 0.000248331, No Iterations 6
smoothSolver:  Solving for Uy, Initial residual = 0.0164903, Final residual = 0.00119256, No Iterations 6
GAMG:  Solving for p, Initial residual = 0.0148984, Final residual = 0.00145262, No Iterations 3
time step continuity errors : sum local = 0.074863, global = 0.01337, cumulative = 1.20633
smoothSolver:  Solving for epsilon, Initial residual = 0.00468158, Final residual = 0.000372351, No Iterations 3
smoothSolver:  Solving for k, Initial residual = 0.00784458, Final residual = 0.00058864, No Iterations 4
ExecutionTime = 0.69 s  ClockTime = 1 s

Time = 54

smoothSolver:  Solving for Ux, Initial residual = 0.00366257, Final residual = 0.000245649, No Iterations 6
smoothSolver:  Solving for Uy, Initial residual = 0.0164221, Final residual = 0.00119084, No Iterations 6
GAMG:  Solving for p, Initial residual = 0.015088, Final residual = 0.00106972, No Iterations 4
time step continuity errors : sum local = 0.0549263, global = 0.00271947, cumulative = 1.20905
smoothSolver:  Solving for epsilon, Initial residual = 0.00459678, Final residual = 0.000364197, No Iterations 3
smoothSolver:  Solving for k, Initial residual = 0.0076081, Final residual = 0.000571906, No Iterations 4
ExecutionTime = 0.7 s  ClockTime = 1 s

Time = 55

smoothSolver:  Solving for Ux, Initial residual = 0.00361484, Final residual = 0.000242064, No Iterations 6
smoothSolver:  Solving for Uy, Initial residual = 0.0165986, Final residual = 0.00120268, No Iterations 6
GAMG:  Solving for p, Initial residual = 0.0143851, Final residual = 0.00133458, No Iterations 3
time step continuity errors : sum local = 0.0680156, global = 0.0140998, cumulative = 1.22315
smoothSolver:  Solving for epsilon, Initial residual = 0.00449036, Final residual = 0.000354813, No Iterations 3
smoothSolver:  Solving for k, Initial residual = 0.00740983, Final residual = 0.000554394, No Iterations 4
ExecutionTime = 0.71 s  ClockTime = 1 s

Time = 56

smoothSolver:  Solving for Ux, Initial residual = 0.00357519, Final residual = 0.00023945, No Iterations 6
smoothSolver:  Solving for Uy, Initial residual = 0.0166107, Final residual = 0.00120591, No Iterations 6
GAMG:  Solving for p, Initial residual = 0.0145251, Final residual = 0.00101175, No Iterations 4
time step continuity errors : sum local = 0.0514385, global = 0.00454414, cumulative = 1.22769
smoothSolver:  Solving for epsilon, Initial residual = 0.00442732, Final residual = 0.000350557, No Iterations 3
smoothSolver:  Solving for k, Initial residual = 0.00720208, Final residual = 0.000540401, No Iterations 4
ExecutionTime = 0.73 s  ClockTime = 1 s

Time = 57

smoothSolver:  Solving for Ux, Initial residual = 0.00353572, Final residual = 0.000236543, No Iterations 6
smoothSolver:  Solving for Uy, Initial residual = 0.0167007, Final residual = 0.00121404, No Iterations 6
GAMG:  Solving for p, Initial residual = 0.0141234, Final residual = 0.00131181, No Iterations 3
time step continuity errors : sum local = 0.0661616, global = 0.013214, cumulative = 1.24091
smoothSolver:  Solving for epsilon, Initial residual = 0.00433647, Final residual = 0.000343923, No Iterations 3
smoothSolver:  Solving for k, Initial residual = 0.00701914, Final residual = 0.000527314, No Iterations 4
ExecutionTime = 0.74 s  ClockTime = 1 s

Time = 58

smoothSolver:  Solving for Ux, Initial residual = 0.00349855, Final residual = 0.000233781, No Iterations 6
smoothSolver:  Solving for Uy, Initial residual = 0.0167642, Final residual = 0.00121954, No Iterations 6
GAMG:  Solving for p, Initial residual = 0.0143604, Final residual = 0.000925608, No Iterations 4
time step continuity errors : sum local = 0.0465606, global = -0.00441238, cumulative = 1.23649
smoothSolver:  Solving for epsilon, Initial residual = 0.0042612, Final residual = 0.000336794, No Iterations 3
smoothSolver:  Solving for k, Initial residual = 0.00682787, Final residual = 0.000510284, No Iterations 4
ExecutionTime = 0.75 s  ClockTime = 1 s

Time = 59

smoothSolver:  Solving for Ux, Initial residual = 0.0034628, Final residual = 0.000231085, No Iterations 6
smoothSolver:  Solving for Uy, Initial residual = 0.0168702, Final residual = 0.00123024, No Iterations 6
GAMG:  Solving for p, Initial residual = 0.01403, Final residual = 0.00129923, No Iterations 3
time step continuity errors : sum local = 0.0648088, global = 0.012513, cumulative = 1.24901
smoothSolver:  Solving for epsilon, Initial residual = 0.00420438, Final residual = 0.000333422, No Iterations 3
smoothSolver:  Solving for k, Initial residual = 0.00669401, Final residual = 0.000499215, No Iterations 4
ExecutionTime = 0.76 s  ClockTime = 1 s

Time = 60

smoothSolver:  Solving for Ux, Initial residual = 0.00343365, Final residual = 0.000229037, No Iterations 6
smoothSolver:  Solving for Uy, Initial residual = 0.0169053, Final residual = 0.00123442, No Iterations 6
GAMG:  Solving for p, Initial residual = 0.0144575, Final residual = 0.00142536, No Iterations 3
time step continuity errors : sum local = 0.0710187, global = 0.0142624, cumulative = 1.26327
smoothSolver:  Solving for epsilon, Initial residual = 0.00414905, Final residual = 0.000328912, No Iterations 3
smoothSolver:  Solving for k, Initial residual = 0.0065725, Final residual = 0.000488691, No Iterations 4
ExecutionTime = 0.77 s  ClockTime = 1 s

Time = 61

smoothSolver:  Solving for Ux, Initial residual = 0.00339649, Final residual = 0.000225674, No Iterations 6
smoothSolver:  Solving for Uy, Initial residual = 0.0170665, Final residual = 0.0012462, No Iterations 6
GAMG:  Solving for p, Initial residual = 0.0135541, Final residual = 0.000893657, No Iterations 4
time step continuity errors : sum local = 0.0444368, global = -0.00389089, cumulative = 1.25938
smoothSolver:  Solving for epsilon, Initial residual = 0.00409504, Final residual = 0.000325833, No Iterations 3
smoothSolver:  Solving for k, Initial residual = 0.00641527, Final residual = 0.000477061, No Iterations 4
ExecutionTime = 0.78 s  ClockTime = 1 s

Time = 62

smoothSolver:  Solving for Ux, Initial residual = 0.00336532, Final residual = 0.000223836, No Iterations 6
smoothSolver:  Solving for Uy, Initial residual = 0.017203, Final residual = 0.00126039, No Iterations 6
GAMG:  Solving for p, Initial residual = 0.0133419, Final residual = 0.00127914, No Iterations 3
time step continuity errors : sum local = 0.0631291, global = 0.0116058, cumulative = 1.27098
smoothSolver:  Solving for epsilon, Initial residual = 0.00406601, Final residual = 0.000324484, No Iterations 3
smoothSolver:  Solving for k, Initial residual = 0.00628662, Final residual = 0.000468671, No Iterations 4
ExecutionTime = 0.79 s  ClockTime = 1 s

Time = 63

smoothSolver:  Solving for Ux, Initial residual = 0.00334747, Final residual = 0.000222518, No Iterations 6
smoothSolver:  Solving for Uy, Initial residual = 0.0172666, Final residual = 0.00126651, No Iterations 6
GAMG:  Solving for p, Initial residual = 0.0137447, Final residual = 0.000751278, No Iterations 4
time step continuity errors : sum local = 0.0370476, global = -0.00601794, cumulative = 1.26497
smoothSolver:  Solving for epsilon, Initial residual = 0.00400402, Final residual = 0.000322186, No Iterations 3
smoothSolver:  Solving for k, Initial residual = 0.00613684, Final residual = 0.000458184, No Iterations 4
ExecutionTime = 0.8 s  ClockTime = 1 s

Time = 64

smoothSolver:  Solving for Ux, Initial residual = 0.00331736, Final residual = 0.000219767, No Iterations 6
smoothSolver:  Solving for Uy, Initial residual = 0.0174347, Final residual = 0.00127873, No Iterations 6
GAMG:  Solving for p, Initial residual = 0.0130901, Final residual = 0.00106792, No Iterations 4
time step continuity errors : sum local = 0.0525435, global = -0.0108677, cumulative = 1.2541
smoothSolver:  Solving for epsilon, Initial residual = 0.00396997, Final residual = 0.000318539, No Iterations 3
smoothSolver:  Solving for k, Initial residual = 0.00602151, Final residual = 0.000448984, No Iterations 4
ExecutionTime = 0.82 s  ClockTime = 1 s

Time = 65

smoothSolver:  Solving for Ux, Initial residual = 0.00330029, Final residual = 0.000218861, No Iterations 6
smoothSolver:  Solving for Uy, Initial residual = 0.0175657, Final residual = 0.00129135, No Iterations 6
GAMG:  Solving for p, Initial residual = 0.0131108, Final residual = 0.0012443, No Iterations 4
time step continuity errors : sum local = 0.0611032, global = -0.0131998, cumulative = 1.2409
smoothSolver:  Solving for epsilon, Initial residual = 0.00392941, Final residual = 0.000316902, No Iterations 3
smoothSolver:  Solving for k, Initial residual = 0.00593645, Final residual = 0.000445236, No Iterations 4
ExecutionTime = 0.83 s  ClockTime = 1 s

Time = 66

smoothSolver:  Solving for Ux, Initial residual = 0.0032837, Final residual = 0.000217404, No Iterations 6
smoothSolver:  Solving for Uy, Initial residual = 0.0176809, Final residual = 0.00130013, No Iterations 6
GAMG:  Solving for p, Initial residual = 0.0131427, Final residual = 0.000982398, No Iterations 5
time step continuity errors : sum local = 0.048163, global = 0.00913365, cumulative = 1.25003
smoothSolver:  Solving for epsilon, Initial residual = 0.00389699, Final residual = 0.000314801, No Iterations 3
smoothSolver:  Solving for k, Initial residual = 0.00583761, Final residual = 0.000436388, No Iterations 4
ExecutionTime = 0.84 s  ClockTime = 1 s

Time = 67

smoothSolver:  Solving for Ux, Initial residual = 0.00325889, Final residual = 0.000215789, No Iterations 6
smoothSolver:  Solving for Uy, Initial residual = 0.0178479, Final residual = 0.00131235, No Iterations 6
GAMG:  Solving for p, Initial residual = 0.0128358, Final residual = 0.0012358, No Iterations 3
time step continuity errors : sum local = 0.0605345, global = 0.0126374, cumulative = 1.26267
smoothSolver:  Solving for epsilon, Initial residual = 0.00385582, Final residual = 0.000313672, No Iterations 3
smoothSolver:  Solving for k, Initial residual = 0.00575857, Final residual = 0.000432536, No Iterations 4
ExecutionTime = 0.86 s  ClockTime = 1 s

Time = 68

smoothSolver:  Solving for Ux, Initial residual = 0.00324631, Final residual = 0.000214889, No Iterations 6
smoothSolver:  Solving for Uy, Initial residual = 0.0179807, Final residual = 0.00132393, No Iterations 6
GAMG:  Solving for p, Initial residual = 0.0128746, Final residual = 0.000794791, No Iterations 4
time step continuity errors : sum local = 0.0389302, global = 0.00220534, cumulative = 1.26488
smoothSolver:  Solving for epsilon, Initial residual = 0.00382216, Final residual = 0.000313087, No Iterations 3
smoothSolver:  Solving for k, Initial residual = 0.00569472, Final residual = 0.000427443, No Iterations 4
ExecutionTime = 0.87 s  ClockTime = 1 s

Time = 69

smoothSolver:  Solving for Ux, Initial residual = 0.00322451, Final residual = 0.000213667, No Iterations 6
smoothSolver:  Solving for Uy, Initial residual = 0.0181344, Final residual = 0.00133593, No Iterations 6
GAMG:  Solving for p, Initial residual = 0.0123314, Final residual = 0.001085, No Iterations 3
time step continuity errors : sum local = 0.0531152, global = 0.0119291, cumulative = 1.2768
smoothSolver:  Solving for epsilon, Initial residual = 0.00381584, Final residual = 0.000313905, No Iterations 3
smoothSolver:  Solving for k, Initial residual = 0.00561136, Final residual = 0.000422882, No Iterations 4
ExecutionTime = 0.88 s  ClockTime = 1 s

Time = 70

smoothSolver:  Solving for Ux, Initial residual = 0.00322653, Final residual = 0.000213591, No Iterations 6
smoothSolver:  Solving for Uy, Initial residual = 0.0182703, Final residual = 0.00134655, No Iterations 6
GAMG:  Solving for p, Initial residual = 0.0126518, Final residual = 0.000728171, No Iterations 4
time step continuity errors : sum local = 0.0356463, global = 0.00340913, cumulative = 1.28021
smoothSolver:  Solving for epsilon, Initial residual = 0.00377311, Final residual = 0.000311486, No Iterations 3
smoothSolver:  Solving for k, Initial residual = 0.00557447, Final residual = 0.000422363, No Iterations 4
ExecutionTime = 0.89 s  ClockTime = 1 s

Time = 71

smoothSolver:  Solving for Ux, Initial residual = 0.0032154, Final residual = 0.000212601, No Iterations 6
smoothSolver:  Solving for Uy, Initial residual = 0.0183976, Final residual = 0.00135597, No Iterations 6
GAMG:  Solving for p, Initial residual = 0.0122196, Final residual = 0.00118935, No Iterations 3
time step continuity errors : sum local = 0.0582543, global = 0.0130564, cumulative = 1.29327
smoothSolver:  Solving for epsilon, Initial residual = 0.00374768, Final residual = 0.000310129, No Iterations 3
smoothSolver:  Solving for k, Initial residual = 0.00550549, Final residual = 0.000417906, No Iterations 4
ExecutionTime = 0.91 s  ClockTime = 1 s

Time = 72

smoothSolver:  Solving for Ux, Initial residual = 0.00321033, Final residual = 0.000212243, No Iterations 6
smoothSolver:  Solving for Uy, Initial residual = 0.0185455, Final residual = 0.00136699, No Iterations 6
GAMG:  Solving for p, Initial residual = 0.0123349, Final residual = 0.000772512, No Iterations 4
time step continuity errors : sum local = 0.0378487, global = 0.0010357, cumulative = 1.29431
smoothSolver:  Solving for epsilon, Initial residual = 0.00372664, Final residual = 0.000310194, No Iterations 3
smoothSolver:  Solving for k, Initial residual = 0.00546127, Final residual = 0.000416935, No Iterations 4
ExecutionTime = 0.92 s  ClockTime = 1 s

Time = 73

smoothSolver:  Solving for Ux, Initial residual = 0.00320199, Final residual = 0.000211707, No Iterations 6
smoothSolver:  Solving for Uy, Initial residual = 0.0186688, Final residual = 0.00137775, No Iterations 6
GAMG:  Solving for p, Initial residual = 0.0119831, Final residual = 0.00114602, No Iterations 3
time step continuity errors : sum local = 0.0563047, global = 0.0122935, cumulative = 1.3066
smoothSolver:  Solving for epsilon, Initial residual = 0.00369225, Final residual = 0.000309551, No Iterations 3
smoothSolver:  Solving for k, Initial residual = 0.00538934, Final residual = 0.000412882, No Iterations 4
ExecutionTime = 0.93 s  ClockTime = 1 s

Time = 74

smoothSolver:  Solving for Ux, Initial residual = 0.00320506, Final residual = 0.000211693, No Iterations 6
smoothSolver:  Solving for Uy, Initial residual = 0.0187884, Final residual = 0.00138722, No Iterations 6
GAMG:  Solving for p, Initial residual = 0.0122814, Final residual = 0.0007011, No Iterations 4
time step continuity errors : sum local = 0.034443, global = -0.00440198, cumulative = 1.3022
smoothSolver:  Solving for epsilon, Initial residual = 0.00368927, Final residual = 0.000311711, No Iterations 3
smoothSolver:  Solving for k, Initial residual = 0.00536907, Final residual = 0.000414359, No Iterations 4
ExecutionTime = 0.94 s  ClockTime = 1 s

Time = 75

smoothSolver:  Solving for Ux, Initial residual = 0.00319314, Final residual = 0.000210741, No Iterations 6
smoothSolver:  Solving for Uy, Initial residual = 0.0189188, Final residual = 0.00139775, No Iterations 6
GAMG:  Solving for p, Initial residual = 0.0117358, Final residual = 0.000927017, No Iterations 4
time step continuity errors : sum local = 0.0457226, global = -0.00961826, cumulative = 1.29258
smoothSolver:  Solving for epsilon, Initial residual = 0.0036442, Final residual = 0.000308469, No Iterations 3
smoothSolver:  Solving for k, Initial residual = 0.00532767, Final residual = 0.000413885, No Iterations 4
ExecutionTime = 0.95 s  ClockTime = 1 s

Time = 76

smoothSolver:  Solving for Ux, Initial residual = 0.00319886, Final residual = 0.000211082, No Iterations 6
smoothSolver:  Solving for Uy, Initial residual = 0.0190474, Final residual = 0.0014085, No Iterations 6
GAMG:  Solving for p, Initial residual = 0.0119862, Final residual = 0.00117061, No Iterations 4
time step continuity errors : sum local = 0.0578507, global = -0.0118805, cumulative = 1.2807
smoothSolver:  Solving for epsilon, Initial residual = 0.00363929, Final residual = 0.000308907, No Iterations 3
smoothSolver:  Solving for k, Initial residual = 0.00529865, Final residual = 0.000413828, No Iterations 4
ExecutionTime = 0.96 s  ClockTime = 1 s

Time = 77

smoothSolver:  Solving for Ux, Initial residual = 0.00319626, Final residual = 0.000210611, No Iterations 6
smoothSolver:  Solving for Uy, Initial residual = 0.0191529, Final residual = 0.00141699, No Iterations 6
GAMG:  Solving for p, Initial residual = 0.0119889, Final residual = 0.000903246, No Iterations 5
time step continuity errors : sum local = 0.0447072, global = 0.00812266, cumulative = 1.28882
smoothSolver:  Solving for epsilon, Initial residual = 0.00362045, Final residual = 0.000309745, No Iterations 3
smoothSolver:  Solving for k, Initial residual = 0.00526442, Final residual = 0.000413938, No Iterations 4
ExecutionTime = 0.98 s  ClockTime = 1 s

Time = 78

smoothSolver:  Solving for Ux, Initial residual = 0.00318731, Final residual = 0.000209866, No Iterations 6
smoothSolver:  Solving for Uy, Initial residual = 0.0193036, Final residual = 0.0014279, No Iterations 6
GAMG:  Solving for p, Initial residual = 0.0116714, Final residual = 0.00109631, No Iterations 3
time step continuity errors : sum local = 0.0542505, global = 0.00834803, cumulative = 1.29717
smoothSolver:  Solving for epsilon, Initial residual = 0.00359143, Final residual = 0.000308813, No Iterations 3
smoothSolver:  Solving for k, Initial residual = 0.00523773, Final residual = 0.000414596, No Iterations 4
ExecutionTime = 0.99 s  ClockTime = 1 s

Time = 79

smoothSolver:  Solving for Ux, Initial residual = 0.00318854, Final residual = 0.000210133, No Iterations 6
smoothSolver:  Solving for Uy, Initial residual = 0.0194281, Final residual = 0.00143919, No Iterations 6
GAMG:  Solving for p, Initial residual = 0.0118208, Final residual = 0.00117567, No Iterations 3
time step continuity errors : sum local = 0.0581254, global = 0.00956808, cumulative = 1.30674
smoothSolver:  Solving for epsilon, Initial residual = 0.00356762, Final residual = 0.000308811, No Iterations 3
smoothSolver:  Solving for k, Initial residual = 0.00520568, Final residual = 0.000414756, No Iterations 4
ExecutionTime = 1 s  ClockTime = 1 s

Time = 80

smoothSolver:  Solving for Ux, Initial residual = 0.0031826, Final residual = 0.000209526, No Iterations 6
smoothSolver:  Solving for Uy, Initial residual = 0.0195818, Final residual = 0.00145036, No Iterations 6
GAMG:  Solving for p, Initial residual = 0.0116427, Final residual = 0.00109305, No Iterations 3
time step continuity errors : sum local = 0.0541437, global = 0.00960292, cumulative = 1.31634
smoothSolver:  Solving for epsilon, Initial residual = 0.00353996, Final residual = 0.000308518, No Iterations 3
smoothSolver:  Solving for k, Initial residual = 0.00518339, Final residual = 0.000415549, No Iterations 4
ExecutionTime = 1.01 s  ClockTime = 1 s

Time = 81

smoothSolver:  Solving for Ux, Initial residual = 0.0031782, Final residual = 0.000209203, No Iterations 6
smoothSolver:  Solving for Uy, Initial residual = 0.0197438, Final residual = 0.00146252, No Iterations 6
GAMG:  Solving for p, Initial residual = 0.0114949, Final residual = 0.00102623, No Iterations 3
time step continuity errors : sum local = 0.0509142, global = 0.00951841, cumulative = 1.32586
smoothSolver:  Solving for epsilon, Initial residual = 0.00352355, Final residual = 0.000308496, No Iterations 3
smoothSolver:  Solving for k, Initial residual = 0.00515792, Final residual = 0.000417137, No Iterations 4
ExecutionTime = 1.02 s  ClockTime = 1 s

Time = 82

smoothSolver:  Solving for Ux, Initial residual = 0.00317743, Final residual = 0.000209135, No Iterations 6
smoothSolver:  Solving for Uy, Initial residual = 0.0198851, Final residual = 0.001474, No Iterations 6
GAMG:  Solving for p, Initial residual = 0.0114334, Final residual = 0.00103274, No Iterations 3
time step continuity errors : sum local = 0.0512871, global = 0.00974081, cumulative = 1.3356
smoothSolver:  Solving for epsilon, Initial residual = 0.00351138, Final residual = 0.00030949, No Iterations 3
smoothSolver:  Solving for k, Initial residual = 0.0051574, Final residual = 0.000419966, No Iterations 4
ExecutionTime = 1.03 s  ClockTime = 1 s

Time = 83

smoothSolver:  Solving for Ux, Initial residual = 0.00317542, Final residual = 0.000208917, No Iterations 6
smoothSolver:  Solving for Uy, Initial residual = 0.0200316, Final residual = 0.00148561, No Iterations 6
GAMG:  Solving for p, Initial residual = 0.0114121, Final residual = 0.00104058, No Iterations 3
time step continuity errors : sum local = 0.0517073, global = 0.00969351, cumulative = 1.34529
smoothSolver:  Solving for epsilon, Initial residual = 0.00350705, Final residual = 0.000310483, No Iterations 3
smoothSolver:  Solving for k, Initial residual = 0.00510706, Final residual = 0.00041869, No Iterations 4
ExecutionTime = 1.04 s  ClockTime = 1 s

Time = 84

smoothSolver:  Solving for Ux, Initial residual = 0.00317252, Final residual = 0.00020871, No Iterations 6
smoothSolver:  Solving for Uy, Initial residual = 0.0201831, Final residual = 0.00149771, No Iterations 6
GAMG:  Solving for p, Initial residual = 0.0113564, Final residual = 0.00109363, No Iterations 3
time step continuity errors : sum local = 0.0543654, global = 0.0094772, cumulative = 1.35477
smoothSolver:  Solving for epsilon, Initial residual = 0.00345996, Final residual = 0.000307826, No Iterations 3
smoothSolver:  Solving for k, Initial residual = 0.00509862, Final residual = 0.000421413, No Iterations 4
ExecutionTime = 1.05 s  ClockTime = 1 s

Time = 85

smoothSolver:  Solving for Ux, Initial residual = 0.00316926, Final residual = 0.000208472, No Iterations 6
smoothSolver:  Solving for Uy, Initial residual = 0.0203416, Final residual = 0.00151044, No Iterations 6
GAMG:  Solving for p, Initial residual = 0.0113383, Final residual = 0.000829773, No Iterations 4
time step continuity errors : sum local = 0.0412726, global = -0.00816701, cumulative = 1.3466
smoothSolver:  Solving for epsilon, Initial residual = 0.00343945, Final residual = 0.000307591, No Iterations 3
smoothSolver:  Solving for k, Initial residual = 0.0050958, Final residual = 0.000424298, No Iterations 4
ExecutionTime = 1.06 s  ClockTime = 1 s

Time = 86

smoothSolver:  Solving for Ux, Initial residual = 0.0031613, Final residual = 0.000207808, No Iterations 6
smoothSolver:  Solving for Uy, Initial residual = 0.020521, Final residual = 0.00152368, No Iterations 6
GAMG:  Solving for p, Initial residual = 0.0111005, Final residual = 0.00110649, No Iterations 4
time step continuity errors : sum local = 0.0550917, global = -0.0115701, cumulative = 1.33503
smoothSolver:  Solving for epsilon, Initial residual = 0.00342392, Final residual = 0.000307719, No Iterations 3
smoothSolver:  Solving for k, Initial residual = 0.00505296, Final residual = 0.000423659, No Iterations 4
ExecutionTime = 1.07 s  ClockTime = 1 s

Time = 87

smoothSolver:  Solving for Ux, Initial residual = 0.00316277, Final residual = 0.000208206, No Iterations 6
smoothSolver:  Solving for Uy, Initial residual = 0.0206548, Final residual = 0.00153548, No Iterations 6
GAMG:  Solving for p, Initial residual = 0.0113679, Final residual = 0.00094671, No Iterations 5
time step continuity errors : sum local = 0.0471509, global = 0.00984605, cumulative = 1.34488
smoothSolver:  Solving for epsilon, Initial residual = 0.00339229, Final residual = 0.00030627, No Iterations 3
smoothSolver:  Solving for k, Initial residual = 0.00506422, Final residual = 0.000427731, No Iterations 4
ExecutionTime = 1.09 s  ClockTime = 1 s

Time = 88

smoothSolver:  Solving for Ux, Initial residual = 0.00315607, Final residual = 0.000207422, No Iterations 6
smoothSolver:  Solving for Uy, Initial residual = 0.0208641, Final residual = 0.0015494, No Iterations 6
GAMG:  Solving for p, Initial residual = 0.0111835, Final residual = 0.00110157, No Iterations 4
time step continuity errors : sum local = 0.0547376, global = -0.0130622, cumulative = 1.33182
smoothSolver:  Solving for epsilon, Initial residual = 0.0033653, Final residual = 0.000304997, No Iterations 3
smoothSolver:  Solving for k, Initial residual = 0.00502855, Final residual = 0.000427577, No Iterations 4
ExecutionTime = 1.11 s  ClockTime = 1 s

Time = 89

smoothSolver:  Solving for Ux, Initial residual = 0.00315091, Final residual = 0.000207296, No Iterations 6
smoothSolver:  Solving for Uy, Initial residual = 0.0210186, Final residual = 0.00156299, No Iterations 6
GAMG:  Solving for p, Initial residual = 0.0111878, Final residual = 0.000978333, No Iterations 5
time step continuity errors : sum local = 0.0486531, global = 0.0100838, cumulative = 1.3419
smoothSolver:  Solving for epsilon, Initial residual = 0.00335002, Final residual = 0.000305051, No Iterations 3
smoothSolver:  Solving for k, Initial residual = 0.00500234, Final residual = 0.000428029, No Iterations 4
ExecutionTime = 1.12 s  ClockTime = 1 s

Time = 90

smoothSolver:  Solving for Ux, Initial residual = 0.00314352, Final residual = 0.000206888, No Iterations 6
smoothSolver:  Solving for Uy, Initial residual = 0.0212237, Final residual = 0.00157777, No Iterations 6
GAMG:  Solving for p, Initial residual = 0.0111488, Final residual = 0.000841613, No Iterations 5
time step continuity errors : sum local = 0.0417485, global = 0.00780385, cumulative = 1.3497
smoothSolver:  Solving for epsilon, Initial residual = 0.00332186, Final residual = 0.000303943, No Iterations 3
smoothSolver:  Solving for k, Initial residual = 0.00497548, Final residual = 0.000428769, No Iterations 4
ExecutionTime = 1.13 s  ClockTime = 1 s

Time = 91

smoothSolver:  Solving for Ux, Initial residual = 0.00313642, Final residual = 0.000206391, No Iterations 6
smoothSolver:  Solving for Uy, Initial residual = 0.0213837, Final residual = 0.00159097, No Iterations 6
GAMG:  Solving for p, Initial residual = 0.0109948, Final residual = 0.000823373, No Iterations 5
time step continuity errors : sum local = 0.0407874, global = 0.0073308, cumulative = 1.35704
smoothSolver:  Solving for epsilon, Initial residual = 0.00328262, Final residual = 0.000301135, No Iterations 3
smoothSolver:  Solving for k, Initial residual = 0.00499244, Final residual = 0.000432366, No Iterations 4
ExecutionTime = 1.14 s  ClockTime = 1 s

Time = 92

smoothSolver:  Solving for Ux, Initial residual = 0.00312913, Final residual = 0.000206061, No Iterations 6
smoothSolver:  Solving for Uy, Initial residual = 0.0215626, Final residual = 0.00160519, No Iterations 6
GAMG:  Solving for p, Initial residual = 0.0109955, Final residual = 0.000840207, No Iterations 5
time step continuity errors : sum local = 0.041571, global = 0.00719819, cumulative = 1.36423
smoothSolver:  Solving for epsilon, Initial residual = 0.00326588, Final residual = 0.000300374, No Iterations 3
smoothSolver:  Solving for k, Initial residual = 0.00494726, Final residual = 0.000431181, No Iterations 4
ExecutionTime = 1.16 s  ClockTime = 1 s

Time = 93

smoothSolver:  Solving for Ux, Initial residual = 0.00312222, Final residual = 0.000205668, No Iterations 6
smoothSolver:  Solving for Uy, Initial residual = 0.0217273, Final residual = 0.00161831, No Iterations 6
GAMG:  Solving for p, Initial residual = 0.0109919, Final residual = 0.000863374, No Iterations 5
time step continuity errors : sum local = 0.0426866, global = 0.00731578, cumulative = 1.37155
smoothSolver:  Solving for epsilon, Initial residual = 0.00324909, Final residual = 0.000299358, No Iterations 3
smoothSolver:  Solving for k, Initial residual = 0.00493425, Final residual = 0.000432254, No Iterations 4
ExecutionTime = 1.17 s  ClockTime = 1 s

Time = 94

smoothSolver:  Solving for Ux, Initial residual = 0.00311366, Final residual = 0.000205163, No Iterations 6
smoothSolver:  Solving for Uy, Initial residual = 0.0218961, Final residual = 0.0016311, No Iterations 6
GAMG:  Solving for p, Initial residual = 0.0109698, Final residual = 0.000883036, No Iterations 5
time step continuity errors : sum local = 0.0436114, global = 0.00752055, cumulative = 1.37907
smoothSolver:  Solving for epsilon, Initial residual = 0.00322022, Final residual = 0.000296486, No Iterations 3
smoothSolver:  Solving for k, Initial residual = 0.00493738, Final residual = 0.000434168, No Iterations 4
ExecutionTime = 1.18 s  ClockTime = 1 s

Time = 95

smoothSolver:  Solving for Ux, Initial residual = 0.00310314, Final residual = 0.000204548, No Iterations 6
smoothSolver:  Solving for Uy, Initial residual = 0.022063, Final residual = 0.00164389, No Iterations 6
GAMG:  Solving for p, Initial residual = 0.0109496, Final residual = 0.000893686, No Iterations 5
time step continuity errors : sum local = 0.0440841, global = 0.0076292, cumulative = 1.3867
smoothSolver:  Solving for epsilon, Initial residual = 0.00319583, Final residual = 0.000294458, No Iterations 3
smoothSolver:  Solving for k, Initial residual = 0.00493107, Final residual = 0.000435513, No Iterations 4
ExecutionTime = 1.19 s  ClockTime = 1 s

Time = 96

smoothSolver:  Solving for Ux, Initial residual = 0.00309183, Final residual = 0.000203924, No Iterations 6
smoothSolver:  Solving for Uy, Initial residual = 0.0222306, Final residual = 0.00165686, No Iterations 6
GAMG:  Solving for p, Initial residual = 0.0109319, Final residual = 0.000900526, No Iterations 5
time step continuity errors : sum local = 0.044348, global = 0.00764342, cumulative = 1.39434
smoothSolver:  Solving for epsilon, Initial residual = 0.00317403, Final residual = 0.00029233, No Iterations 3
smoothSolver:  Solving for k, Initial residual = 0.00492522, Final residual = 0.000436464, No Iterations 4
ExecutionTime = 1.2 s  ClockTime = 1 s

Time = 97

smoothSolver:  Solving for Ux, Initial residual = 0.00307951, Final residual = 0.000203262, No Iterations 6
smoothSolver:  Solving for Uy, Initial residual = 0.022396, Final residual = 0.00166975, No Iterations 6
GAMG:  Solving for p, Initial residual = 0.0109072, Final residual = 0.000904271, No Iterations 5
time step continuity errors : sum local = 0.0444572, global = 0.00756258, cumulative = 1.4019
smoothSolver:  Solving for epsilon, Initial residual = 0.00315453, Final residual = 0.000290413, No Iterations 3
smoothSolver:  Solving for k, Initial residual = 0.00492516, Final residual = 0.00043772, No Iterations 4
ExecutionTime = 1.21 s  ClockTime = 1 s

Time = 98

smoothSolver:  Solving for Ux, Initial residual = 0.00306704, Final residual = 0.00020259, No Iterations 6
smoothSolver:  Solving for Uy, Initial residual = 0.0225623, Final residual = 0.00168245, No Iterations 6
GAMG:  Solving for p, Initial residual = 0.0108893, Final residual = 0.000907004, No Iterations 5
time step continuity errors : sum local = 0.0445028, global = 0.00745627, cumulative = 1.40936
smoothSolver:  Solving for epsilon, Initial residual = 0.00313239, Final residual = 0.000287653, No Iterations 3
smoothSolver:  Solving for k, Initial residual = 0.00491733, Final residual = 0.000438021, No Iterations 4
ExecutionTime = 1.23 s  ClockTime = 1 s

Time = 99

smoothSolver:  Solving for Ux, Initial residual = 0.0030533, Final residual = 0.000201852, No Iterations 6
smoothSolver:  Solving for Uy, Initial residual = 0.022722, Final residual = 0.00169502, No Iterations 6
GAMG:  Solving for p, Initial residual = 0.0108626, Final residual = 0.000905483, No Iterations 5
time step continuity errors : sum local = 0.0443442, global = 0.00731717, cumulative = 1.41668
smoothSolver:  Solving for epsilon, Initial residual = 0.00311721, Final residual = 0.000285889, No Iterations 3
smoothSolver:  Solving for k, Initial residual = 0.00490554, Final residual = 0.000437902, No Iterations 4
ExecutionTime = 1.24 s  ClockTime = 1 s

Time = 100

smoothSolver:  Solving for Ux, Initial residual = 0.00303867, Final residual = 0.000201091, No Iterations 6
smoothSolver:  Solving for Uy, Initial residual = 0.0228844, Final residual = 0.00170742, No Iterations 6
GAMG:  Solving for p, Initial residual = 0.0108506, Final residual = 0.00090056, No Iterations 5
time step continuity errors : sum local = 0.0440077, global = 0.00714229, cumulative = 1.42382
smoothSolver:  Solving for epsilon, Initial residual = 0.00309703, Final residual = 0.000283544, No Iterations 3
smoothSolver:  Solving for k, Initial residual = 0.00489764, Final residual = 0.000437999, No Iterations 4
ExecutionTime = 1.28 s  ClockTime = 1 s

streamLine streamlines write:
    seeded 10 particles
    Tracks:10
    Total samples:10930
Time = 101

smoothSolver:  Solving for Ux, Initial residual = 0.00302313, Final residual = 0.00020026, No Iterations 6
smoothSolver:  Solving for Uy, Initial residual = 0.0230334, Final residual = 0.00171948, No Iterations 6
GAMG:  Solving for p, Initial residual = 0.0108121, Final residual = 0.00089055, No Iterations 5
time step continuity errors : sum local = 0.0434308, global = 0.00693499, cumulative = 1.43076
smoothSolver:  Solving for epsilon, Initial residual = 0.0030834, Final residual = 0.00028105, No Iterations 3
smoothSolver:  Solving for k, Initial residual = 0.00490907, Final residual = 0.000439734, No Iterations 4
ExecutionTime = 1.37 s  ClockTime = 1 s

Time = 102

smoothSolver:  Solving for Ux, Initial residual = 0.00300681, Final residual = 0.000199428, No Iterations 6
smoothSolver:  Solving for Uy, Initial residual = 0.0231809, Final residual = 0.00173105, No Iterations 6
GAMG:  Solving for p, Initial residual = 0.0107992, Final residual = 0.000878599, No Iterations 5
time step continuity errors : sum local = 0.0427459, global = 0.00669484, cumulative = 1.43745
smoothSolver:  Solving for epsilon, Initial residual = 0.00307459, Final residual = 0.000279758, No Iterations 3
smoothSolver:  Solving for k, Initial residual = 0.00490334, Final residual = 0.000439732, No Iterations 4
ExecutionTime = 1.38 s  ClockTime = 1 s

Time = 103

smoothSolver:  Solving for Ux, Initial residual = 0.00299032, Final residual = 0.000198583, No Iterations 6
smoothSolver:  Solving for Uy, Initial residual = 0.0233214, Final residual = 0.00174221, No Iterations 6
GAMG:  Solving for p, Initial residual = 0.0107962, Final residual = 0.000862784, No Iterations 5
time step continuity errors : sum local = 0.0418736, global = 0.00642069, cumulative = 1.44387
smoothSolver:  Solving for epsilon, Initial residual = 0.00305026, Final residual = 0.000276385, No Iterations 3
smoothSolver:  Solving for k, Initial residual = 0.00490326, Final residual = 0.000439531, No Iterations 4
ExecutionTime = 1.4 s  ClockTime = 1 s

Time = 104

smoothSolver:  Solving for Ux, Initial residual = 0.00297277, Final residual = 0.000197731, No Iterations 6
smoothSolver:  Solving for Uy, Initial residual = 0.0234591, Final residual = 0.00175333, No Iterations 6
GAMG:  Solving for p, Initial residual = 0.0108098, Final residual = 0.000843362, No Iterations 5
time step continuity errors : sum local = 0.0408203, global = 0.0061161, cumulative = 1.44999
smoothSolver:  Solving for epsilon, Initial residual = 0.00303352, Final residual = 0.00027403, No Iterations 3
smoothSolver:  Solving for k, Initial residual = 0.00490171, Final residual = 0.000439231, No Iterations 4
ExecutionTime = 1.41 s  ClockTime = 1 s

Time = 105

smoothSolver:  Solving for Ux, Initial residual = 0.00295504, Final residual = 0.000196855, No Iterations 6
smoothSolver:  Solving for Uy, Initial residual = 0.0235918, Final residual = 0.00176451, No Iterations 6
GAMG:  Solving for p, Initial residual = 0.0108394, Final residual = 0.000819532, No Iterations 5
time step continuity errors : sum local = 0.0395663, global = 0.00577932, cumulative = 1.45577
smoothSolver:  Solving for epsilon, Initial residual = 0.00302462, Final residual = 0.000272497, No Iterations 3
smoothSolver:  Solving for k, Initial residual = 0.00490624, Final residual = 0.000439452, No Iterations 4
ExecutionTime = 1.42 s  ClockTime = 1 s

Time = 106

smoothSolver:  Solving for Ux, Initial residual = 0.00293686, Final residual = 0.000195988, No Iterations 6
smoothSolver:  Solving for Uy, Initial residual = 0.0237238, Final residual = 0.00177548, No Iterations 6
GAMG:  Solving for p, Initial residual = 0.0108585, Final residual = 0.00108065, No Iterations 4
time step continuity errors : sum local = 0.0520245, global = -0.00957429, cumulative = 1.44619
smoothSolver:  Solving for epsilon, Initial residual = 0.00300329, Final residual = 0.000270154, No Iterations 3
smoothSolver:  Solving for k, Initial residual = 0.00490902, Final residual = 0.000438872, No Iterations 4
ExecutionTime = 1.43 s  ClockTime = 1 s

Time = 107

smoothSolver:  Solving for Ux, Initial residual = 0.00291941, Final residual = 0.00019527, No Iterations 6
smoothSolver:  Solving for Uy, Initial residual = 0.0238248, Final residual = 0.00178511, No Iterations 6
GAMG:  Solving for p, Initial residual = 0.0110149, Final residual = 0.00104905, No Iterations 5
time step continuity errors : sum local = 0.0504377, global = 0.00764192, cumulative = 1.45383
smoothSolver:  Solving for epsilon, Initial residual = 0.00300056, Final residual = 0.000269482, No Iterations 3
smoothSolver:  Solving for k, Initial residual = 0.00492236, Final residual = 0.000439373, No Iterations 4
ExecutionTime = 1.44 s  ClockTime = 1 s

Time = 108

smoothSolver:  Solving for Ux, Initial residual = 0.00290427, Final residual = 0.000194599, No Iterations 6
smoothSolver:  Solving for Uy, Initial residual = 0.0239681, Final residual = 0.00179712, No Iterations 6
GAMG:  Solving for p, Initial residual = 0.011024, Final residual = 0.0010396, No Iterations 4
time step continuity errors : sum local = 0.0498091, global = -0.00959629, cumulative = 1.44424
smoothSolver:  Solving for epsilon, Initial residual = 0.00299691, Final residual = 0.000269875, No Iterations 3
smoothSolver:  Solving for k, Initial residual = 0.00492558, Final residual = 0.000438647, No Iterations 4
ExecutionTime = 1.45 s  ClockTime = 2 s

Time = 109

smoothSolver:  Solving for Ux, Initial residual = 0.00287901, Final residual = 0.000193482, No Iterations 6
smoothSolver:  Solving for Uy, Initial residual = 0.0241024, Final residual = 0.00180941, No Iterations 6
GAMG:  Solving for p, Initial residual = 0.0110045, Final residual = 0.000971708, No Iterations 5
time step continuity errors : sum local = 0.0464165, global = 0.00643028, cumulative = 1.45067
smoothSolver:  Solving for epsilon, Initial residual = 0.00298846, Final residual = 0.000266543, No Iterations 3
smoothSolver:  Solving for k, Initial residual = 0.00493841, Final residual = 0.000439149, No Iterations 4
ExecutionTime = 1.46 s  ClockTime = 2 s

Time = 110

smoothSolver:  Solving for Ux, Initial residual = 0.0028671, Final residual = 0.000193324, No Iterations 6
smoothSolver:  Solving for Uy, Initial residual = 0.0242381, Final residual = 0.00182283, No Iterations 6
GAMG:  Solving for p, Initial residual = 0.0111198, Final residual = 0.00106561, No Iterations 4
time step continuity errors : sum local = 0.0507971, global = -0.00872831, cumulative = 1.44194
smoothSolver:  Solving for epsilon, Initial residual = 0.00297266, Final residual = 0.000266418, No Iterations 3
smoothSolver:  Solving for k, Initial residual = 0.00495207, Final residual = 0.000438802, No Iterations 4
ExecutionTime = 1.47 s  ClockTime = 2 s

Time = 111

smoothSolver:  Solving for Ux, Initial residual = 0.00284727, Final residual = 0.000192515, No Iterations 6
smoothSolver:  Solving for Uy, Initial residual = 0.024338, Final residual = 0.00183313, No Iterations 6
GAMG:  Solving for p, Initial residual = 0.0111827, Final residual = 0.000947617, No Iterations 5
time step continuity errors : sum local = 0.0451604, global = 0.00609088, cumulative = 1.44803
smoothSolver:  Solving for epsilon, Initial residual = 0.00296293, Final residual = 0.000264764, No Iterations 3
smoothSolver:  Solving for k, Initial residual = 0.00495501, Final residual = 0.000437668, No Iterations 4
ExecutionTime = 1.49 s  ClockTime = 2 s

Time = 112

smoothSolver:  Solving for Ux, Initial residual = 0.00283738, Final residual = 0.000192325, No Iterations 6
smoothSolver:  Solving for Uy, Initial residual = 0.0244977, Final residual = 0.00184706, No Iterations 6
GAMG:  Solving for p, Initial residual = 0.0112684, Final residual = 0.000950713, No Iterations 4
time step continuity errors : sum local = 0.0452459, global = -0.00747953, cumulative = 1.44055
smoothSolver:  Solving for epsilon, Initial residual = 0.00294388, Final residual = 0.000261902, No Iterations 3
smoothSolver:  Solving for k, Initial residual = 0.00496547, Final residual = 0.000436619, No Iterations 4
ExecutionTime = 1.5 s  ClockTime = 2 s

Time = 113

smoothSolver:  Solving for Ux, Initial residual = 0.00282014, Final residual = 0.000191783, No Iterations 6
smoothSolver:  Solving for Uy, Initial residual = 0.0246245, Final residual = 0.00185853, No Iterations 6
GAMG:  Solving for p, Initial residual = 0.011314, Final residual = 0.000888686, No Iterations 5
time step continuity errors : sum local = 0.0422595, global = 0.00478707, cumulative = 1.44534
smoothSolver:  Solving for epsilon, Initial residual = 0.00293493, Final residual = 0.000259531, No Iterations 3
smoothSolver:  Solving for k, Initial residual = 0.00496729, Final residual = 0.000435428, No Iterations 4
ExecutionTime = 1.51 s  ClockTime = 2 s

Time = 114

smoothSolver:  Solving for Ux, Initial residual = 0.00281572, Final residual = 0.000192055, No Iterations 6
smoothSolver:  Solving for Uy, Initial residual = 0.0247603, Final residual = 0.00187073, No Iterations 6
GAMG:  Solving for p, Initial residual = 0.0114459, Final residual = 0.000972848, No Iterations 4
time step continuity errors : sum local = 0.0462759, global = -0.0067652, cumulative = 1.43857
smoothSolver:  Solving for epsilon, Initial residual = 0.00291592, Final residual = 0.000255769, No Iterations 3
smoothSolver:  Solving for k, Initial residual = 0.00496885, Final residual = 0.000433554, No Iterations 4
ExecutionTime = 1.53 s  ClockTime = 2 s

Time = 115

smoothSolver:  Solving for Ux, Initial residual = 0.00280605, Final residual = 0.000191839, No Iterations 6
smoothSolver:  Solving for Uy, Initial residual = 0.0248703, Final residual = 0.00188092, No Iterations 6
GAMG:  Solving for p, Initial residual = 0.0115458, Final residual = 0.000883918, No Iterations 5
time step continuity errors : sum local = 0.0420556, global = 0.00416613, cumulative = 1.44274
smoothSolver:  Solving for epsilon, Initial residual = 0.00290062, Final residual = 0.000255384, No Iterations 3
smoothSolver:  Solving for k, Initial residual = 0.00497494, Final residual = 0.000432144, No Iterations 4
ExecutionTime = 1.54 s  ClockTime = 2 s

Time = 116

smoothSolver:  Solving for Ux, Initial residual = 0.00280537, Final residual = 0.000192221, No Iterations 6
[...]
smoothSolver:  Solving for Uy, Initial residual = 0.00263391, Final residual = 0.000186519, No Iterations 6
GAMG:  Solving for p, Initial residual = 0.00172543, Final residual = 0.000166462, No Iterations 5
time step continuity errors : sum local = 0.00798152, global = 0.000306312, cumulative = 1.51855
smoothSolver:  Solving for epsilon, Initial residual = 0.00026995, Final residual = 1.84745e-05, No Iterations 3
smoothSolver:  Solving for k, Initial residual = 0.000555536, Final residual = 3.41856e-05, No Iterations 4
ExecutionTime = 3.31 s  ClockTime = 3 s

Time = 255

smoothSolver:  Solving for Ux, Initial residual = 0.000308748, Final residual = 2.11684e-05, No Iterations 6
smoothSolver:  Solving for Uy, Initial residual = 0.00254921, Final residual = 0.000178894, No Iterations 6
GAMG:  Solving for p, Initial residual = 0.00168174, Final residual = 0.000159251, No Iterations 5
time step continuity errors : sum local = 0.00764289, global = 0.000268944, cumulative = 1.51882
smoothSolver:  Solving for epsilon, Initial residual = 0.00026346, Final residual = 1.7949e-05, No Iterations 3
smoothSolver:  Solving for k, Initial residual = 0.000543379, Final residual = 3.32116e-05, No Iterations 4
ExecutionTime = 3.32 s  ClockTime = 3 s

Time = 256

smoothSolver:  Solving for Ux, Initial residual = 0.000300284, Final residual = 2.06284e-05, No Iterations 6
smoothSolver:  Solving for Uy, Initial residual = 0.00246204, Final residual = 0.000171144, No Iterations 6
GAMG:  Solving for p, Initial residual = 0.00163674, Final residual = 0.000154346, No Iterations 5
time step continuity errors : sum local = 0.00741013, global = 0.00025282, cumulative = 1.51907
smoothSolver:  Solving for epsilon, Initial residual = 0.000255024, Final residual = 1.72549e-05, No Iterations 3
smoothSolver:  Solving for k, Initial residual = 0.00052771, Final residual = 3.23153e-05, No Iterations 4
ExecutionTime = 3.33 s  ClockTime = 3 s

Time = 257

smoothSolver:  Solving for Ux, Initial residual = 0.000292111, Final residual = 2.01048e-05, No Iterations 6
smoothSolver:  Solving for Uy, Initial residual = 0.00236918, Final residual = 0.000163348, No Iterations 6
GAMG:  Solving for p, Initial residual = 0.00159232, Final residual = 0.000148758, No Iterations 5
time step continuity errors : sum local = 0.00714676, global = 0.000240549, cumulative = 1.51931
smoothSolver:  Solving for epsilon, Initial residual = 0.000248603, Final residual = 1.67125e-05, No Iterations 3
smoothSolver:  Solving for k, Initial residual = 0.000512472, Final residual = 3.11457e-05, No Iterations 4
ExecutionTime = 3.34 s  ClockTime = 3 s

Time = 258

smoothSolver:  Solving for Ux, Initial residual = 0.000284282, Final residual = 1.95726e-05, No Iterations 6
smoothSolver:  Solving for Uy, Initial residual = 0.00227691, Final residual = 0.000155638, No Iterations 6
GAMG:  Solving for p, Initial residual = 0.001544, Final residual = 0.000144083, No Iterations 5
time step continuity errors : sum local = 0.00692348, global = 0.000252672, cumulative = 1.51956
smoothSolver:  Solving for epsilon, Initial residual = 0.000239973, Final residual = 1.60609e-05, No Iterations 3
smoothSolver:  Solving for k, Initial residual = 0.000497204, Final residual = 3.01408e-05, No Iterations 4
ExecutionTime = 3.35 s  ClockTime = 3 s

Time = 259

smoothSolver:  Solving for Ux, Initial residual = 0.000276899, Final residual = 1.90401e-05, No Iterations 6
smoothSolver:  Solving for Uy, Initial residual = 0.00218362, Final residual = 0.000148081, No Iterations 6
GAMG:  Solving for p, Initial residual = 0.00150121, Final residual = 0.000137962, No Iterations 5
time step continuity errors : sum local = 0.00663257, global = 0.000272629, cumulative = 1.51984
smoothSolver:  Solving for epsilon, Initial residual = 0.000232973, Final residual = 1.54513e-05, No Iterations 3
smoothSolver:  Solving for k, Initial residual = 0.000481204, Final residual = 2.92209e-05, No Iterations 4
ExecutionTime = 3.37 s  ClockTime = 3 s

Time = 260

smoothSolver:  Solving for Ux, Initial residual = 0.000269529, Final residual = 1.8482e-05, No Iterations 6
smoothSolver:  Solving for Uy, Initial residual = 0.00209156, Final residual = 0.000140838, No Iterations 6
GAMG:  Solving for p, Initial residual = 0.00145475, Final residual = 0.000133272, No Iterations 5
time step continuity errors : sum local = 0.00640714, global = 0.000314445, cumulative = 1.52015
smoothSolver:  Solving for epsilon, Initial residual = 0.00022471, Final residual = 1.48324e-05, No Iterations 3
smoothSolver:  Solving for k, Initial residual = 0.000465055, Final residual = 2.80684e-05, No Iterations 4
ExecutionTime = 3.38 s  ClockTime = 3 s

Time = 261

smoothSolver:  Solving for Ux, Initial residual = 0.000262494, Final residual = 1.79113e-05, No Iterations 6
smoothSolver:  Solving for Uy, Initial residual = 0.00200002, Final residual = 0.00013392, No Iterations 6
GAMG:  Solving for p, Initial residual = 0.00141437, Final residual = 0.000125936, No Iterations 5
time step continuity errors : sum local = 0.0060561, global = 0.000338822, cumulative = 1.52049
smoothSolver:  Solving for epsilon, Initial residual = 0.000217998, Final residual = 1.41561e-05, No Iterations 3
smoothSolver:  Solving for k, Initial residual = 0.000448773, Final residual = 2.712e-05, No Iterations 4
ExecutionTime = 3.39 s  ClockTime = 3 s

Time = 262

smoothSolver:  Solving for Ux, Initial residual = 0.000255228, Final residual = 1.73095e-05, No Iterations 6
smoothSolver:  Solving for Uy, Initial residual = 0.00191311, Final residual = 0.000127433, No Iterations 6
GAMG:  Solving for p, Initial residual = 0.00137307, Final residual = 0.000118888, No Iterations 5
time step continuity errors : sum local = 0.00571622, global = 0.000273758, cumulative = 1.52076
smoothSolver:  Solving for epsilon, Initial residual = 0.000209801, Final residual = 1.35357e-05, No Iterations 3
smoothSolver:  Solving for k, Initial residual = 0.000432946, Final residual = 2.60854e-05, No Iterations 4
ExecutionTime = 3.4 s  ClockTime = 3 s

Time = 263

smoothSolver:  Solving for Ux, Initial residual = 0.00024788, Final residual = 1.66898e-05, No Iterations 6
smoothSolver:  Solving for Uy, Initial residual = 0.00183031, Final residual = 0.000121381, No Iterations 6
GAMG:  Solving for p, Initial residual = 0.00133264, Final residual = 0.000111898, No Iterations 5
time step continuity errors : sum local = 0.00538033, global = -0.000201534, cumulative = 1.52056
smoothSolver:  Solving for epsilon, Initial residual = 0.000203438, Final residual = 1.29269e-05, No Iterations 3
smoothSolver:  Solving for k, Initial residual = 0.000417194, Final residual = 2.51229e-05, No Iterations 4
ExecutionTime = 3.41 s  ClockTime = 4 s

Time = 264

smoothSolver:  Solving for Ux, Initial residual = 0.000240346, Final residual = 1.60612e-05, No Iterations 6
smoothSolver:  Solving for Uy, Initial residual = 0.0017493, Final residual = 0.000115737, No Iterations 6
GAMG:  Solving for p, Initial residual = 0.0012904, Final residual = 0.000108379, No Iterations 5
time step continuity errors : sum local = 0.00520988, global = -0.000174, cumulative = 1.52039
smoothSolver:  Solving for epsilon, Initial residual = 0.000195714, Final residual = 1.23471e-05, No Iterations 3
smoothSolver:  Solving for k, Initial residual = 0.000401373, Final residual = 2.41301e-05, No Iterations 4
ExecutionTime = 3.43 s  ClockTime = 4 s

Time = 265

smoothSolver:  Solving for Ux, Initial residual = 0.000232497, Final residual = 1.54245e-05, No Iterations 6
smoothSolver:  Solving for Uy, Initial residual = 0.00166993, Final residual = 0.00011045, No Iterations 6
GAMG:  Solving for p, Initial residual = 0.00125761, Final residual = 0.000106155, No Iterations 5
time step continuity errors : sum local = 0.00510272, global = -0.000376092, cumulative = 1.52001
smoothSolver:  Solving for epsilon, Initial residual = 0.000189762, Final residual = 1.17775e-05, No Iterations 3
smoothSolver:  Solving for k, Initial residual = 0.000386456, Final residual = 2.32462e-05, No Iterations 4
ExecutionTime = 3.45 s  ClockTime = 4 s

Time = 266

smoothSolver:  Solving for Ux, Initial residual = 0.000224492, Final residual = 1.47738e-05, No Iterations 6
smoothSolver:  Solving for Uy, Initial residual = 0.0015945, Final residual = 0.000105653, No Iterations 6
GAMG:  Solving for p, Initial residual = 0.00122928, Final residual = 0.000106257, No Iterations 5
time step continuity errors : sum local = 0.00510564, global = -0.000399689, cumulative = 1.51961
smoothSolver:  Solving for epsilon, Initial residual = 0.000182261, Final residual = 1.12701e-05, No Iterations 3
smoothSolver:  Solving for k, Initial residual = 0.000371647, Final residual = 2.23444e-05, No Iterations 4
ExecutionTime = 3.46 s  ClockTime = 4 s

Time = 267

smoothSolver:  Solving for Ux, Initial residual = 0.000216149, Final residual = 1.4092e-05, No Iterations 6
smoothSolver:  Solving for Uy, Initial residual = 0.00152604, Final residual = 0.000101438, No Iterations 6
GAMG:  Solving for p, Initial residual = 0.00119987, Final residual = 0.00010629, No Iterations 5
time step continuity errors : sum local = 0.00510595, global = -0.000401916, cumulative = 1.51921
smoothSolver:  Solving for epsilon, Initial residual = 0.000176756, Final residual = 1.07664e-05, No Iterations 3
smoothSolver:  Solving for k, Initial residual = 0.00035753, Final residual = 2.15016e-05, No Iterations 4
ExecutionTime = 3.47 s  ClockTime = 4 s

Time = 268

smoothSolver:  Solving for Ux, Initial residual = 0.000207523, Final residual = 1.34196e-05, No Iterations 6
smoothSolver:  Solving for Uy, Initial residual = 0.00146325, Final residual = 9.78128e-05, No Iterations 6
GAMG:  Solving for p, Initial residual = 0.00116724, Final residual = 0.000105453, No Iterations 5
time step continuity errors : sum local = 0.00506305, global = -0.000402948, cumulative = 1.51881
smoothSolver:  Solving for epsilon, Initial residual = 0.000169985, Final residual = 1.02776e-05, No Iterations 3
smoothSolver:  Solving for k, Initial residual = 0.000343388, Final residual = 2.06728e-05, No Iterations 4
ExecutionTime = 3.48 s  ClockTime = 4 s

Time = 269

smoothSolver:  Solving for Ux, Initial residual = 0.000198836, Final residual = 1.27564e-05, No Iterations 6
smoothSolver:  Solving for Uy, Initial residual = 0.00140586, Final residual = 9.46288e-05, No Iterations 6
GAMG:  Solving for p, Initial residual = 0.00113615, Final residual = 0.000105317, No Iterations 5
time step continuity errors : sum local = 0.00505465, global = -0.000402175, cumulative = 1.51841
smoothSolver:  Solving for epsilon, Initial residual = 0.000165284, Final residual = 9.84276e-06, No Iterations 3
smoothSolver:  Solving for k, Initial residual = 0.000330461, Final residual = 1.99e-05, No Iterations 4
ExecutionTime = 3.49 s  ClockTime = 4 s

Time = 270

smoothSolver:  Solving for Ux, Initial residual = 0.000190253, Final residual = 1.89366e-05, No Iterations 5
smoothSolver:  Solving for Uy, Initial residual = 0.00135341, Final residual = 9.20048e-05, No Iterations 6
GAMG:  Solving for p, Initial residual = 0.00109164, Final residual = 0.000100396, No Iterations 5
time step continuity errors : sum local = 0.00481561, global = -0.000372673, cumulative = 1.51803
smoothSolver:  Solving for epsilon, Initial residual = 0.000158906, Final residual = 9.43337e-06, No Iterations 3
smoothSolver:  Solving for k, Initial residual = 0.000318183, Final residual = 1.92593e-05, No Iterations 4
ExecutionTime = 3.51 s  ClockTime = 4 s

Time = 271

smoothSolver:  Solving for Ux, Initial residual = 0.000182799, Final residual = 1.81034e-05, No Iterations 5
smoothSolver:  Solving for Uy, Initial residual = 0.0012896, Final residual = 8.86416e-05, No Iterations 6
GAMG:  Solving for p, Initial residual = 0.00106677, Final residual = 0.000100407, No Iterations 5
time step continuity errors : sum local = 0.00481446, global = -0.00036633, cumulative = 1.51767
smoothSolver:  Solving for epsilon, Initial residual = 0.000154454, Final residual = 9.04928e-06, No Iterations 3
smoothSolver:  Solving for k, Initial residual = 0.000306652, Final residual = 1.85417e-05, No Iterations 4
ExecutionTime = 3.52 s  ClockTime = 4 s

Time = 272

smoothSolver:  Solving for Ux, Initial residual = 0.00017506, Final residual = 1.72585e-05, No Iterations 5
smoothSolver:  Solving for Uy, Initial residual = 0.0012414, Final residual = 8.62324e-05, No Iterations 6
GAMG:  Solving for p, Initial residual = 0.00103552, Final residual = 9.95651e-05, No Iterations 5
time step continuity errors : sum local = 0.00477115, global = -0.000359798, cumulative = 1.51731
smoothSolver:  Solving for epsilon, Initial residual = 0.000149036, Final residual = 8.69786e-06, No Iterations 3
smoothSolver:  Solving for k, Initial residual = 0.000295376, Final residual = 1.7927e-05, No Iterations 4
ExecutionTime = 3.53 s  ClockTime = 4 s

Time = 273

smoothSolver:  Solving for Ux, Initial residual = 0.000167388, Final residual = 1.64212e-05, No Iterations 5
smoothSolver:  Solving for Uy, Initial residual = 0.00120414, Final residual = 8.46642e-05, No Iterations 6
GAMG:  Solving for p, Initial residual = 0.00100288, Final residual = 9.89797e-05, No Iterations 5
time step continuity errors : sum local = 0.00474114, global = -0.000347994, cumulative = 1.51696
smoothSolver:  Solving for epsilon, Initial residual = 0.000145769, Final residual = 8.37721e-06, No Iterations 3
smoothSolver:  Solving for k, Initial residual = 0.000285044, Final residual = 1.73299e-05, No Iterations 4
ExecutionTime = 3.54 s  ClockTime = 4 s

Time = 274

smoothSolver:  Solving for Ux, Initial residual = 0.000159859, Final residual = 1.56229e-05, No Iterations 5
smoothSolver:  Solving for Uy, Initial residual = 0.00117742, Final residual = 8.35419e-05, No Iterations 6
GAMG:  Solving for p, Initial residual = 0.000973449, Final residual = 9.67858e-05, No Iterations 5
time step continuity errors : sum local = 0.00463304, global = -0.000332, cumulative = 1.51663
smoothSolver:  Solving for epsilon, Initial residual = 0.000140841, Final residual = 8.09778e-06, No Iterations 3
smoothSolver:  Solving for k, Initial residual = 0.000275007, Final residual = 1.67698e-05, No Iterations 4
ExecutionTime = 3.55 s  ClockTime = 4 s

Time = 275

smoothSolver:  Solving for Ux, Initial residual = 0.000152711, Final residual = 1.48894e-05, No Iterations 5
smoothSolver:  Solving for Uy, Initial residual = 0.0011534, Final residual = 8.22319e-05, No Iterations 6
GAMG:  Solving for p, Initial residual = 0.000935527, Final residual = 9.32943e-05, No Iterations 5
time step continuity errors : sum local = 0.00446386, global = -0.000314295, cumulative = 1.51631
smoothSolver:  Solving for epsilon, Initial residual = 0.000137828, Final residual = 7.84918e-06, No Iterations 3
smoothSolver:  Solving for k, Initial residual = 0.000265821, Final residual = 1.62743e-05, No Iterations 4
ExecutionTime = 3.57 s  ClockTime = 4 s

Time = 276

smoothSolver:  Solving for Ux, Initial residual = 0.000146086, Final residual = 1.42237e-05, No Iterations 5
smoothSolver:  Solving for Uy, Initial residual = 0.00112857, Final residual = 8.0576e-05, No Iterations 6
GAMG:  Solving for p, Initial residual = 0.000898489, Final residual = 8.88765e-05, No Iterations 5
time step continuity errors : sum local = 0.00424973, global = -0.000295702, cumulative = 1.51602
smoothSolver:  Solving for epsilon, Initial residual = 0.000133417, Final residual = 7.62872e-06, No Iterations 3
smoothSolver:  Solving for k, Initial residual = 0.000257397, Final residual = 1.58051e-05, No Iterations 4
ExecutionTime = 3.58 s  ClockTime = 4 s

Time = 277

smoothSolver:  Solving for Ux, Initial residual = 0.000140011, Final residual = 1.36301e-05, No Iterations 5
smoothSolver:  Solving for Uy, Initial residual = 0.00110755, Final residual = 7.86991e-05, No Iterations 6
GAMG:  Solving for p, Initial residual = 0.000867446, Final residual = 8.42832e-05, No Iterations 5
time step continuity errors : sum local = 0.00402844, global = -0.000279453, cumulative = 1.51574
smoothSolver:  Solving for epsilon, Initial residual = 0.000131305, Final residual = 7.43809e-06, No Iterations 3
smoothSolver:  Solving for k, Initial residual = 0.000249533, Final residual = 1.53758e-05, No Iterations 4
ExecutionTime = 3.59 s  ClockTime = 4 s

Time = 278

smoothSolver:  Solving for Ux, Initial residual = 0.000134472, Final residual = 1.31077e-05, No Iterations 5
smoothSolver:  Solving for Uy, Initial residual = 0.00108579, Final residual = 7.65795e-05, No Iterations 6
GAMG:  Solving for p, Initial residual = 0.000840481, Final residual = 7.94952e-05, No Iterations 5
time step continuity errors : sum local = 0.00379721, global = -0.000264302, cumulative = 1.51547
smoothSolver:  Solving for epsilon, Initial residual = 0.000127265, Final residual = 7.28224e-06, No Iterations 3
smoothSolver:  Solving for k, Initial residual = 0.000242472, Final residual = 1.49809e-05, No Iterations 4
ExecutionTime = 3.6 s  ClockTime = 4 s

Time = 279

smoothSolver:  Solving for Ux, Initial residual = 0.000129472, Final residual = 1.26501e-05, No Iterations 5
smoothSolver:  Solving for Uy, Initial residual = 0.00106127, Final residual = 7.43057e-05, No Iterations 6
GAMG:  Solving for p, Initial residual = 0.000817433, Final residual = 7.44917e-05, No Iterations 5
time step continuity errors : sum local = 0.00355697, global = -0.00025366, cumulative = 1.51522
smoothSolver:  Solving for epsilon, Initial residual = 0.00012611, Final residual = 7.17932e-06, No Iterations 3
smoothSolver:  Solving for k, Initial residual = 0.000236331, Final residual = 1.46137e-05, No Iterations 4
ExecutionTime = 3.61 s  ClockTime = 4 s

Time = 280

smoothSolver:  Solving for Ux, Initial residual = 0.000124935, Final residual = 1.22622e-05, No Iterations 5
smoothSolver:  Solving for Uy, Initial residual = 0.00103546, Final residual = 7.18939e-05, No Iterations 6
GAMG:  Solving for p, Initial residual = 0.000795192, Final residual = 6.96451e-05, No Iterations 5
time step continuity errors : sum local = 0.00332364, global = -0.000246537, cumulative = 1.51497
smoothSolver:  Solving for epsilon, Initial residual = 0.00012249, Final residual = 7.06965e-06, No Iterations 3
smoothSolver:  Solving for k, Initial residual = 0.000229939, Final residual = 1.42552e-05, No Iterations 4
ExecutionTime = 3.63 s  ClockTime = 4 s

Time = 281

smoothSolver:  Solving for Ux, Initial residual = 0.000120842, Final residual = 1.19315e-05, No Iterations 5
smoothSolver:  Solving for Uy, Initial residual = 0.00100728, Final residual = 6.94219e-05, No Iterations 6
GAMG:  Solving for p, Initial residual = 0.000775217, Final residual = 6.64108e-05, No Iterations 5
time step continuity errors : sum local = 0.00316834, global = -0.000247037, cumulative = 1.51473
smoothSolver:  Solving for epsilon, Initial residual = 0.000121879, Final residual = 6.99879e-06, No Iterations 3
smoothSolver:  Solving for k, Initial residual = 0.000225336, Final residual = 1.38961e-05, No Iterations 4
ExecutionTime = 3.64 s  ClockTime = 4 s

Time = 282

smoothSolver:  Solving for Ux, Initial residual = 0.000117336, Final residual = 1.16612e-05, No Iterations 5
smoothSolver:  Solving for Uy, Initial residual = 0.000977218, Final residual = 6.68938e-05, No Iterations 6
GAMG:  Solving for p, Initial residual = 0.000750804, Final residual = 6.37178e-05, No Iterations 5
time step continuity errors : sum local = 0.0030383, global = -0.00025114, cumulative = 1.51447
smoothSolver:  Solving for epsilon, Initial residual = 0.000118214, Final residual = 6.90987e-06, No Iterations 3
smoothSolver:  Solving for k, Initial residual = 0.000219843, Final residual = 1.36055e-05, No Iterations 4
ExecutionTime = 3.65 s  ClockTime = 4 s


SIMPLE solution converged in 282 iterations

streamLine streamlines write:
    seeded 10 particles
    Tracks:10
    Total samples:10885
End

